! pbe def2-sv(p) def2/J RI DEFGRID1 loosescf d4 GCP(DFT/SV(P)) printgap
%output
    printlevel normal
end
* xyz 0 1
C 2.1524238125 -2.0134045609 -2.6282974842
C 2.5615138821 -0.5565867335 -2.5234141405
O 3.2152118252 -0.2752120581 -1.2738556072
P 2.450492657 0.1903957983 0.0312483791
S 1.1350341229 1.6296442505 -0.218617176
O 3.7576284405 0.5766886818 0.8330946606
C 3.7320589021 1.4377894677 1.9845388123
C 2.9655849471 0.8344886828 3.1451642768
S 1.7550082333 -1.5947466518 0.9646914534
C -0.0135005805 -1.2548282761 1.083065009
S -0.8658197835 -1.3481674635 -0.5361494574
P -2.4223463857 0.0617639286 -0.2072519304
S -2.2232789829 1.2347623659 1.3578240056
O -3.7724183191 -0.7676924472 -0.2231132846
C -4.440209639 -1.1942046457 0.9737223524
C -3.6792991749 -2.296243627 1.6846705187
O -2.6559830812 0.6923754975 -1.6388018733
C -1.7049740616 1.4576268175 -2.3937058219
C -1.7236842925 2.919014402 -1.9913351949
H 1.8090827506 -2.2128753819 -3.6382619363
H 3.0026073105 -2.6515996357 -2.4043748603
H 1.346560112 -2.2423036156 -1.9334924365
H 1.6980535942 0.1092553898 -2.6325124364
H 3.3085731362 -0.302584956 -3.2779024061
H 4.7866911479 1.5741331195 2.2282294353
H 3.293574291 2.3975461917 1.6922433801
H 3.1025691065 1.4546365018 4.0254653559
H 1.9018373204 0.7933340668 2.9114376245
H 3.322295925 -0.1713667434 3.3522406545
H -0.1899890273 -0.2567964178 1.4932044247
H -0.406547257 -2.0295478247 1.7366127878
H -4.5693495206 -0.3291807199 1.6323877433
H -5.4128079478 -1.5391859097 0.6202220811
H -4.2910424178 -2.6977489272 2.4861698988
H -3.4305990233 -3.0920916441 0.9869664391
H -2.7626320834 -1.89130921 2.111480309
H -0.7052983605 1.0349563914 -2.2587253616
H -2.0215305478 1.3258810413 -3.4301672879
H -2.7352588898 3.3111397779 -2.0498414892
H -1.3586001721 3.0321429458 -0.9717452042
H -1.0752884835 3.4823928027 -2.6545131423
*
