! pbe def2-sv(p) def2/J RI DEFGRID1 loosescf d4 GCP(DFT/SV(P)) printgap
%output
    printlevel normal
end
* xyz 0 1
C 3.9877494341 -2.7945809103 0.3867211514
C 2.4768670969 -2.7876855625 0.2220275776
O 2.0812488804 -1.945472214 -0.8778097564
C 1.9693467538 -0.652696205 -0.6803045881
O 2.149658251 -0.0840188857 0.3786540547
C 1.577895952 0.0899341503 -1.9442062316
C 0.3581582501 0.9748060057 -1.6713944208
H 0.2523449454 1.7190951917 -2.4637440112
C 0.4813244646 1.676890975 -0.333554008
O -0.3012685299 1.4618108656 0.5804412701
O 1.4356981687 2.5521980864 -0.307798412
C 1.7066423577 3.2300383436 0.9397537611
C 2.6881405619 4.3485865548 0.6558532401
S -1.1999459535 0.0240606674 -1.6817425161
P -1.6660488928 -0.4452938862 0.332118278
S -0.5576167597 -1.2548783496 1.729088165
O -2.7147754911 0.5949648073 0.9527650877
C -3.7197731011 1.2304112453 0.146496271
O -2.6549115805 -1.5913595016 -0.2890462779
C -3.3893353769 -2.4715271283 0.5575987756
H 4.2552557957 -3.4933501887 1.1721513898
H 4.4636597692 -3.0961328541 -0.5423460856
H 4.3378952173 -1.8029906972 0.6641627349
H 1.9799981677 -2.4318991064 1.1302061412
H 2.0977928621 -3.7735279036 -0.0468053428
H 1.3615199403 -0.6185317129 -2.7418007324
H 2.4187831032 0.7269653417 -2.2260591057
H 0.7604840845 3.6002132841 1.3457556225
H 2.1142560449 2.4854367111 1.6305551751
H 2.915501593 4.8643473542 1.5826490321
H 3.6040583832 3.941418678 0.2395186913
H 2.2597541195 5.0528354149 -0.0507820954
H -4.0634558083 0.5582196365 -0.6413745953
H -3.3077949569 2.1381398652 -0.2934607222
H -4.5314644081 1.4729679192 0.8285067769
H -3.830839422 -3.2135383126 -0.102941578
H -4.1644689908 -1.9261080847 1.0980741702
H -2.7167545444 -2.9476347303 1.2742146233
*
