! r2scan-3c def2/J RI DEFGRID2 scfconv6 printgap
%output
    printlevel normal
end
%cpcm
    smd true
    smdsolvent "water"
end
* xyz 0 1
C 3.4668346129 -2.2067425045 1.6906994073
C 2.0753533796 -2.1290011276 1.0966601297
O 1.6796104681 -0.7613894486 0.8735396968
P 2.3167869678 0.1085821368 -0.310013176
S 2.9533570097 -0.9006447837 -1.8549523464
O 3.4619190623 0.9913548671 0.3335462565
C 3.2555454719 1.7764446709 1.5359326866
C 4.6181893397 2.1260311816 2.0967543246
S 0.7363950161 1.4829576331 -0.638211492
C -0.1897142088 0.4188635772 -1.7753694661
S -0.9759511892 -0.984927285 -0.9550607667
P -2.6026256185 0.1351986002 -0.1377607956
S -3.4506382207 1.4031789394 -1.3590402418
O -2.0252019179 0.8584582881 1.1355530716
C -1.3897173268 0.1662318406 2.2402432221
C -0.644717488 1.203144071 3.0542850107
O -3.5397048778 -0.9767421763 0.504348189
C -4.5793246173 -1.6449288058 -0.2349598823
C -4.0321411273 -2.4811680187 -1.3729707257
H 4.1867264265 -1.7826582727 0.9906030011
H 3.5134989018 -1.6551121493 2.6260689632
H 3.723890965 -3.2453627484 1.8729572603
H 1.3182727217 -2.5216134979 1.776787452
H 2.0294614557 -2.6646668151 0.1435609139
H 2.6937363332 2.6717532223 1.2575439954
H 2.6694236694 1.1852617541 2.2438442544
H 4.4910673293 2.7352428728 2.9857895691
H 5.1630202069 1.2219888563 2.3535509753
H 5.1918356253 2.6803270512 1.3596693224
H 0.4946892844 0.0125932691 -2.5206195598
H -0.9586432666 1.0403437949 -2.2366201682
H -2.1703157876 -0.3269024602 2.8222069807
H -0.7093768643 -0.587310881 1.8329364487
H 0.1025040439 1.691837809 2.433850314
H -1.3365187606 1.9560565344 3.4202591917
H -0.1598564961 0.7178937607 3.8951120435
H -5.0744714679 -2.2610503421 0.516946658
H -5.2725678581 -0.8878349453 -0.6131922639
H -3.2587334462 -3.1548334229 -1.0123558029
H -4.8385398364 -3.0593517672 -1.8125099721
H -3.6056249579 -1.8346220061 -2.1386251285
*
