! pbe def2-sv(p) def2/J RI DEFGRID1 loosescf d4 GCP(DFT/SV(P)) printgap
%output
    printlevel normal
end
* xyz 0 1
C 1.8045002496 3.0514802475 0.0837612597
C 3.1470647834 2.5489124378 0.5768632629
O 3.5022191123 1.3035279865 -0.0435987553
P 2.9796757553 -0.0987342876 0.4706630614
S 2.7873922745 -0.2168015445 2.425303992
O 4.1331542109 -0.9346341494 -0.2161619509
C 4.0568101178 -2.3300815242 -0.5560045093
C 3.7130496706 -3.2034789703 0.6339392147
S 1.2416356802 -0.6044210563 -0.6648558184
C 0.0281993159 -0.7624465213 0.672912222
S -1.0456498522 0.6859207808 0.8794934291
P -2.7332562282 0.056404944 -0.2360359991
S -2.6263498966 -1.7516808809 -1.00262702
O -3.0793685311 1.1976473815 -1.2909973956
C -2.5544218333 1.2038882356 -2.6278838833
C -1.1091051045 1.6568991505 -2.659454836
O -3.8176863481 0.3338144808 0.8835325524
C -5.211930613 0.6059774539 0.6236508734
C -5.9013564017 -0.5425210454 -0.0836562208
H 1.7915246324 3.0695935439 -1.002930686
H 1.0040199596 2.4039922987 0.4390978169
H 1.6354853332 4.0538098331 0.4636431858
H 3.1406725706 2.4165503705 1.6645085059
H 3.9551240689 3.2259350367 0.2948092834
H 3.3190793327 -2.4529470083 -1.3541308814
H 5.0539696034 -2.554730082 -0.9385849804
H 3.7702046043 -4.2479832588 0.3447394102
H 4.4052774852 -3.0176877933 1.4519660756
H 2.7032795138 -2.9879466963 0.9819583299
H 0.5661694103 -0.8944545155 1.6143691122
H -0.5956010769 -1.6255270314 0.4360362238
H -2.6554921756 0.1976720694 -3.0482338052
H -3.2040889127 1.8974498014 -3.164041891
H -0.7939269521 1.7817179086 -3.6903025546
H -1.0008887633 2.6008318199 -2.131105764
H -0.4707725635 0.910859239 -2.1877871306
H -5.6268438479 0.7693080533 1.6196472508
H -5.279521385 1.5245999852 0.0370271098
H -6.9594398639 -0.3221690432 -0.1842415005
H -5.4722781412 -0.6865836833 -1.0744041861
H -5.7776075781 -1.4634766324 0.4814253219
*
