! pbe def2-sv(p) def2/J RI DEFGRID1 loosescf d4 GCP(DFT/SV(P)) printgap
%output
    printlevel normal
end
* xyz 0 1
C 4.8409453345 -1.2889016946 -1.5159808125
C 4.855783002 -0.0101183339 -0.7044547545
O 3.7049626326 0.1048737954 0.1508522215
P 2.2313418357 0.2536278291 -0.4215142508
S 2.0495861875 1.4073015974 -1.9909590886
O 1.4182977585 0.7654128989 0.8307104603
C 1.5873370816 0.1785266724 2.1510281465
C 2.4995978142 1.0378173008 3.0003421874
S 1.5937697026 -1.7670329245 -0.668853268
C -0.1248109792 -1.4099160686 -1.0914742321
S -1.1841076114 -1.3286157891 0.3856717043
P -2.4013470474 0.3346194277 -0.1495232933
S -1.4289235335 1.7463865335 -1.1055939865
O -3.1060617923 0.7626120084 1.204535756
C -2.3600059654 1.3191549966 2.3072009461
C -2.2278162815 0.2919033967 3.4155467217
O -3.6079221884 -0.1966747886 -1.0107866914
C -4.7967055996 -0.8519052445 -0.4957028845
C -4.4908731722 -2.1648410652 0.1929258845
H 4.691242321 -2.1487384432 -0.8678012435
H 4.0336968669 -1.2543233646 -2.2462389814
H 5.7849871427 -1.3910979786 -2.0413743748
H 4.8833414526 0.8629402219 -1.3635051515
H 5.6977756765 0.0179700235 -0.0113311666
H 0.57945206 0.1367150145 2.5669589991
H 1.9811098978 -0.835229033 2.0409973883
H 2.1153590327 2.0531664403 3.0501843532
H 2.5462966321 0.6202760061 4.001139347
H 3.498655679 1.0632042476 2.5738712203
H -0.4692028834 -2.2212124573 -1.7268479911
H -0.1770649309 -0.4464541379 -1.6090799972
H -1.3858420005 1.6607857043 1.9421640587
H -2.9375468572 2.1852075918 2.6364155588
H -1.7043362929 -0.5920105145 3.0564692994
H -1.6767714167 0.7282601345 4.24253673
H -3.2137600912 -0.0045570115 3.7617156716
H -5.2961914367 -0.1593809701 0.1833625158
H -5.402765306 -0.9976503055 -1.3912456307
H -5.4265848762 -2.6413047534 0.4685628059
H -3.9382166678 -2.8247014426 -0.4707627314
H -3.900788961 -1.9956653479 1.0908630243
*
