! pbe def2-sv(p) def2/J RI DEFGRID1 loosescf d4 GCP(DFT/SV(P)) printgap
%output
    printlevel normal
end
* xyz 0 1
C 3.1673037735 -1.7507368226 -2.8290435078
C 3.9070715521 -0.5611828088 -2.2484339144
O 3.7258502232 -0.4610005518 -0.8282615719
P 2.4021711614 0.0895542242 -0.1520997257
S 1.4505763546 1.413625174 -1.2532113929
O 3.1280830309 0.5307837877 1.1776347805
C 2.5283363379 1.0505354624 2.3750015282
C 2.2996578303 2.5452431147 2.2693199965
S 1.27536622 -1.6165812477 0.4251091801
C -0.029832776 -1.5840080926 -0.8582498213
S -1.699797066 -1.7563562403 -0.196005264
P -2.0430273057 0.2810177658 0.3309702148
S -0.9277640925 0.9859684372 1.7776116716
O -3.6067712409 0.3507062939 0.5972275277
C -4.1819733765 0.0628362721 1.8839223743
C -3.9977538203 -1.3872758252 2.2804065179
O -1.8704904999 1.1131845124 -0.9962754019
C -2.8657564215 1.2905240646 -2.0337357319
C -3.2111424245 -0.0008388278 -2.744856271
H 3.4016964613 -2.6489823695 -2.2636185393
H 2.0939545245 -1.5741784695 -2.7903578316
H 3.4643526306 -1.8883957677 -3.863776902
H 3.5694877386 0.370953361 -2.7139877809
H 4.9866357245 -0.6635764133 -2.3671910572
H 1.5887444179 0.5301084383 2.5795013963
H 3.254333606 0.8145383614 3.1554063077
H 1.9298847618 2.9170848079 3.2192223468
H 3.2265306205 3.050843799 2.0121873883
H 1.5562088597 2.7576347647 1.5030577504
H 0.1166194452 -2.4407180872 -1.5105295485
H 0.0516969325 -0.6352249227 -1.3976705196
H -3.7226435901 0.7254611882 2.624173502
H -5.235341493 0.3176891752 1.7589874601
H -4.5483902376 -1.5817409105 3.1951250795
H -4.3573820746 -2.0456974471 1.4938132757
H -2.94246439 -1.59362423 2.4546549986
H -3.7526750377 1.7366251493 -1.5803495771
H -2.3896835601 2.0066348078 -2.7059899189
H -3.8922517642 0.2225148063 -3.5602796391
H -2.315032892 -0.464855631 -3.1490909133
H -3.6929374152 -0.694860625 -2.0600329173
*
