! pbe def2-sv(p) def2/J RI DEFGRID1 loosescf d4 GCP(DFT/SV(P)) printgap
%output
    printlevel normal
end
* xyz 0 1
C 3.7321311441 -0.7340408977 -2.7660953831
C 4.5276905156 -1.005371792 -1.5043293312
O 3.6937238184 -1.388421651 -0.3972928182
P 2.6772445238 -0.3838960918 0.2871939756
S 3.2939037155 1.4712747298 0.4727147911
O 2.5093715315 -1.2209831342 1.620326792
C 2.1071996402 -0.6409741093 2.8739654455
C 0.6731941964 -0.1519664508 2.8510372612
S 0.8578939976 -0.6852059424 -0.7939880136
C 0.3619580103 1.0334605659 -1.0877925414
S -0.8724889455 1.658558612 0.0847864951
P -2.419272622 0.3317239028 -0.4634097085
S -2.6220638988 -0.0504560594 -2.3675297475
O -3.741115609 0.954889935 0.1475342893
C -3.9186486545 1.2286647042 1.5605254865
C -3.6643043915 2.691450629 1.8636387799
O -2.0412116 -0.9199709487 0.4649130202
C -2.3530160889 -2.2693384235 0.0782741154
C -3.834239118 -2.5544660482 0.2224736376
H 3.1308791739 0.1663388898 -2.6452024478
H 4.4163390051 -0.5883515383 -3.5959977833
H 3.0727892706 -1.5702449606 -2.9855969151
H 5.1030801837 -0.1198628809 -1.2153833999
H 5.1984926484 -1.8564565667 -1.630074809
H 2.2444736909 -1.4541074272 3.5885299356
H 2.7880363957 0.1819243553 3.1131145599
H 0.3726197323 0.1291452485 3.855295255
H 0.5860674544 0.720184964 2.2040132256
H 0.010805257 -0.9318769114 2.4817452286
H -0.061527037 1.0747552054 -2.0902965208
H 1.2319616302 1.6853878727 -0.9878858001
H -4.9583042329 0.960841013 1.7571469681
H -3.2518867108 0.5817596712 2.1352969593
H -4.2942931832 3.3158149153 1.236224324
H -3.8960222124 2.8821525378 2.9067898079
H -2.623081745 2.946472235 1.6776565772
H -2.0270946065 -2.4198053757 -0.9557754948
H -1.7504721867 -2.8882167854 0.7447287149
H -4.0309789379 -3.5871470667 -0.047449764
H -4.1573455697 -2.3809757947 1.2456555855
H -4.3981214345 -1.9013340805 -0.4434376318
*
