  21
        -24.06234046
 C         -3.3100525795       -0.3131744819        0.1010672856
 C         -1.9770399383        0.2290047429       -0.3994550687
 C         -0.7940285367       -0.5355019137        0.1914462440
 C          0.5514767047        0.0738065981       -0.2244443030
 H          0.5952115614        0.1429275219       -1.3177547359
 C          1.7243958845       -0.7808020537        0.2760534486
 C          3.0616533477       -0.2701039600       -0.2481378875
 O          0.6677641360        1.4154535612        0.2129817482
 H         -3.4175944157       -1.3622516258       -0.1653483180
 H         -3.3767757289       -0.2257968794        1.1831464472
 H         -4.1351283712        0.2404106203       -0.3397317209
 H         -1.9385728733        0.1576431072       -1.4886776958
 H         -1.8847425512        1.2850791431       -0.1378083311
 H         -0.8644822740       -0.5285956373        1.2823381321
 H         -0.8274251049       -1.5742568411       -0.1401891710
 H          1.7282921508       -0.7674320548        1.3687890155
 H          1.5702755504       -1.8108341852       -0.0471970231
 H          3.1805445490        0.7837500812       -0.0075749320
 H          3.8836253773       -0.8265405412        0.1943397825
 H          3.1100206375       -0.3782420431       -1.3291507334
 H          0.6379832014        1.4237281762        1.1803598770
