! pbe def2-sv(p) def2/J RI DEFGRID1 loosescf d4 GCP(DFT/SV(P)) printgap
%output
    printlevel normal
end
* xyz 0 1
C 4.0622060102 -2.0555483233 -1.3960697941
C 4.6382685859 -0.7250279546 -0.9530200558
O 3.8787512031 -0.1392621343 0.1168300085
P 2.4081951905 0.4065933925 -0.0961344281
S 2.0822447431 1.19267443 -1.868086599
O 2.4442791051 1.3438110237 1.179882423
C 1.3358820569 2.1003030762 1.6905179088
C 1.2224721032 3.4475305301 1.0046586824
S 1.1246145897 -1.1849056695 0.4794403498
C 0.1463380496 -1.4109627239 -1.051786929
S -1.5717224442 -1.8058796411 -0.6938356337
P -2.1159579045 0.039849208 0.2220065523
S -1.452716366 1.6366724432 -0.7002890138
O -1.6095931741 0.0047330949 1.7189153669
C -2.2153262572 -0.7312640882 2.8109669098
C -2.1151481283 -2.2311730356 2.6296055789
O -3.6902999671 -0.0652490104 0.4005969408
C -4.6199176056 0.3263625852 -0.6258065111
C -4.5254634541 -0.5497716428 -1.8576544452
H 3.9211979606 -2.7096417358 -0.5392401672
H 3.102140627 -1.8940744317 -1.8853581982
H 4.7405059888 -2.5247113381 -2.1014472022
H 4.6644480691 -0.0198666685 -1.7901142247
H 5.6378853545 -0.8377068425 -0.5313467694
H 0.4099017018 1.5272594499 1.5752821893
H 1.5596470791 2.2148474172 2.7530607497
H 0.9573711842 3.3177914785 -0.0434175627
H 0.4441106468 4.0305154955 1.4866281627
H 2.1681729262 3.9789332073 1.0657106643
H 0.5382465776 -2.2613840831 -1.6042088559
H 0.2104186227 -0.4899093167 -1.639388068
H -1.6450484713 -0.39497995 3.6783226566
H -3.2553094181 -0.4131311372 2.9009805634
H -1.0861386504 -2.5172554004 2.4222190153
H -2.4437115104 -2.7175304954 3.5428246658
H -2.7454059979 -2.5599650595 1.8065283328
H -5.5925091753 0.2347445534 -0.1399396536
H -4.4288953215 1.3728546097 -0.88256532
H -4.5927629003 -1.5995558143 -1.5838917424
H -5.3352618943 -0.3002857625 -2.5358299986
H -3.5774794952 -0.3792905034 -2.3655104664
*
