! wb97x-v def2-tzvp def2/J RIJCOSX DEFGRID2 scfconv7 GCP(DFT/TZ) printgap
%output
    printlevel normal
end
* xyz 0 1
C 1.4034234434336474 -0.0016348585466063321 0.002603613868902824
N -0.08996242219269877 -9.068869834166058e-05 0.007440889575569238
O -0.6666947681781922 -1.0817368590942567 -0.00529387981350277
O -0.6634156070443752 1.0833744467956175 -0.005343738651151624
H 1.7454955104726793 -0.9155122616335013 0.484578039228053
H 1.7466603010638062 0.8985417303320408 0.5092284290438176
H 1.7070842071964998 0.013227620787384745 -1.0475307702854617
*
