! pbe def2-sv(p) def2/J RI DEFGRID1 loosescf d4 GCP(DFT/SV(P)) printgap
%output
    printlevel normal
end
* xyz 0 1
C 3.1193180418 2.2008660195 -2.0057604764
C 2.0057095356 1.1937806754 -1.8123683703
O 1.4463822277 1.3024437525 -0.4786675617
P 1.8305583664 0.3064885572 0.6830838876
S 1.2124974817 0.8673175541 2.4490656884
O 3.4166588391 0.2587454642 0.5337016984
C 4.2873168472 -0.1885106782 1.5873852659
C 4.1042782929 -1.6555119125 1.9182265154
S 1.2519943841 -1.6440203511 0.0179995339
C -0.0415627199 -2.022676836 1.2271988452
S -1.7082906878 -2.1545251148 0.514755042
P -1.8231184618 -0.3146785479 -0.5429474312
S -1.1038961616 -0.3048743835 -2.3698328139
O -1.1886701392 0.6892102503 0.5058439857
C -1.7249623118 2.0068204208 0.7721462118
C -1.5735732626 2.9227678135 -0.4225067831
O -3.3679053004 0.0350984899 -0.471903883
C -4.3214542195 -0.4673274058 -1.4296680654
C -5.4544902234 0.5334577333 -1.5362821183
H 3.9457364264 1.9836129841 -1.3344687437
H 3.4659014991 2.1463901943 -3.0328954346
H 2.7542748278 3.2039649844 -1.8028775955
H 2.3576364245 0.1707005583 -1.9694230731
H 1.1667489254 1.3854409533 -2.4851788117
H 5.2867267798 0.0121462032 1.1986661278
H 4.1006216441 0.4297088308 2.4708639028
H 4.1698183391 -2.2597931579 1.0168911818
H 4.878101025 -1.9614098238 2.6149610248
H 3.1315857715 -1.8153138509 2.3810485531
H -0.0327231109 -1.2509313204 2.0019431247
H 0.1664612243 -3.0052617827 1.6439920141
H -2.7710436701 1.8972464875 1.0618963671
H -1.1346667898 2.3504988918 1.6241410478
H -0.5234826393 3.0136395596 -0.6901614773
H -2.1157245036 2.5151747609 -1.2753006497
H -1.9710415741 3.9026963001 -0.1780368332
H -3.8138429249 -0.6030435043 -2.3909660494
H -4.6751324151 -1.4362927419 -1.0696722011
H -6.1985234581 0.1516035412 -2.2274839373
H -5.911809856 0.6827949883 -0.5624678366
H -5.083016472 1.4864945109 -1.9028419226
*
