! pbe def2-sv(p) def2/J RI DEFGRID1 loosescf d4 GCP(DFT/SV(P)) printgap
%output
    printlevel normal
end
* xyz 0 1
C 3.6610677554 -1.9249051162 -2.3375199646
C 4.0804640962 -0.5400317437 -1.8888109247
O 3.6671865584 -0.2635949592 -0.5398759179
P 2.1396422084 -0.1067682315 -0.1337052622
S 1.0699708753 0.8626490052 -1.4668998561
O 2.2291855374 0.5408226991 1.3080556046
C 2.2828365443 1.9634007806 1.5306213456
C 3.5434778271 2.5803417515 0.964432411
S 1.618519478 -2.0697357549 0.4393119136
C -0.0843519374 -1.8087181537 0.9911999041
S -1.2657868544 -1.6440958484 -0.3968133468
P -2.25745978 0.0853421748 0.2605858744
S -1.2351431704 1.4091159481 1.2972302604
O -3.4416566733 -0.6065077648 1.0516280175
C -4.4039480419 0.1559461241 1.817739055
C -4.0678706919 0.0967975683 3.2946798175
O -3.0404408227 0.6778990238 -0.9851387614
C -2.4604961067 1.5031446224 -2.0119463989
C -2.1001750373 0.6700846515 -3.2249001796
H 2.5748530396 -1.9800563692 -2.4052971036
H 4.0857531402 -2.1316279082 -3.3145963062
H 4.0035346108 -2.672291395 -1.6262812153
H 3.6504224193 0.2229912957 -2.546076077
H 5.1657003497 -0.4358952831 -1.8570037561
H 1.3893873613 2.418137798 1.0903730482
H 2.2341311399 2.0557162143 2.616497279
H 4.4183358438 2.0580320405 1.3428693239
H 3.5338692732 2.512620086 -0.1228403742
H 3.5903014599 3.625940536 1.2521809289
H -0.1349541336 -0.9037950258 1.6013099454
H -0.350846589 -2.6924095678 1.5642662769
H -4.4171538595 1.1877029784 1.4568161544
H -5.3638293203 -0.3174985631 1.6058877716
H -3.1109031209 0.5798534432 3.481145384
H -4.839608358 0.6114495647 3.8580702672
H -4.0105903911 -0.9373746822 3.6220026959
H -3.2352265745 2.2351442032 -2.2478437276
H -1.5803268287 2.0168292096 -1.6125777366
H -1.7628684598 1.328377997 -4.0186580092
H -1.296393088 -0.0214160956 -2.9818472485
H -2.9657428054 0.1057517257 -3.5597666671
*
