! pbe def2-sv(p) def2/J RI DEFGRID1 loosescf d4 GCP(DFT/SV(P)) printgap
%output
    printlevel normal
end
* xyz 0 1
C 4.0357656292 -2.3229318867 0.1712546361
C 2.6347814204 -2.6363961126 -0.3283596133
O 1.9553797058 -1.4369068666 -0.747458807
C 2.119085101 -1.027201202 -1.9960202049
O 2.7916326338 -1.6068725732 -2.8176067025
C 1.3826912415 0.2638971475 -2.2864790941
C 0.3473634312 0.6271914112 -1.232695735
H -0.0810698598 1.6115473333 -1.4511463561
C 0.9188207142 0.6787950405 0.169635669
O 0.3232867098 0.220102185 1.1248168357
O 2.0632716618 1.3002769029 0.2211435131
C 2.6520700589 1.5320950697 1.5192460221
C 2.1188669505 2.8233269079 2.1176282979
S -1.0301480286 -0.5708399294 -1.2069916634
P -2.1517511727 0.3093267789 0.384765315
S -1.890686359 2.1936674684 0.8461626228
O -3.621236861 0.1937656097 -0.2257608049
C -4.198897001 -1.0469413868 -0.6611712206
O -2.3007999461 -0.7569776178 1.5654877484
C -1.5852881883 -0.813776384 2.7984744896
H 3.9945299001 -1.6045818359 0.985920635
H 4.5009421909 -3.2371769124 0.5247502966
H 4.6354613863 -1.9108337563 -0.6368933918
H 2.0076888901 -3.0441515266 0.4651368326
H 2.6699375575 -3.325311945 -1.176822373
H 0.9144217922 0.1718997582 -3.2672132297
H 2.1302618347 1.0595114482 -2.3409058561
H 2.4234554649 0.6793833732 2.1635835209
H 3.7229497135 1.5931813191 1.3251922477
H 1.0372403716 2.7679651405 2.2306897942
H 2.568655267 2.9827016571 3.0918062084
H 2.354704614 3.6634844633 1.4707885134
H -5.1433705906 -0.7742725686 -1.1251861882
H -4.3617365754 -1.70120242 0.193397183
H -3.5414673338 -1.5311802134 -1.3844466399
H -0.6817159054 -1.4062285436 2.6718164535
H -2.264559115 -1.2844005369 3.506299451
H -1.3211255331 0.1900721366 3.1301837458
*
