! pbe def2-sv(p) def2/J RI DEFGRID1 loosescf d4 GCP(DFT/SV(P)) printgap
%output
    printlevel normal
end
* xyz 0 1
C 5.8899322318 -2.1780648604 -1.0795512238
C 4.8800845811 -1.0527816581 -1.1993658052
O 3.5860197283 -1.564707699 -0.8236432236
C 2.5133796749 -0.96125715 -1.2863412007
O 2.5280282896 0.0111764505 -2.0090765559
C 1.2444733429 -1.6524868808 -0.81854173
C 0.2167214117 -0.5988655864 -0.4337520092
H 0.1244161604 0.1375835999 -1.2447946032
C 0.5849888627 0.1803005314 0.8120612624
O -0.2574989611 0.600568187 1.5799413001
O 1.8744943562 0.3428777683 0.9445347694
C 2.3510583551 1.1731727332 2.027495564
C 2.3560083108 2.6351170519 1.6146545901
S -1.4306085585 -1.3255077001 -0.1587045628
P -2.5100151297 0.4771169631 0.1817878
S -1.7938512876 2.1190595897 -0.6096340865
O -3.9329357309 0.0689593863 -0.4501383183
C -4.1037297537 -0.0980203789 -1.8596409917
O -2.9460678742 0.5921876662 1.6940535174
C -3.5988459449 -0.4875329745 2.3908097257
H 5.6362841101 -2.9847770791 -1.7608456705
H 6.8771390876 -1.8010622264 -1.324968842
H 5.8950175135 -2.5647182872 -0.0650993151
H 4.8167499657 -0.6625334139 -2.2196555322
H 5.1195221746 -0.225724036 -0.5246858871
H 1.475495225 -2.314217059 0.0145132282
H 0.8504100896 -2.2447170167 -1.6466397984
H 1.7058408545 1.0147480065 2.8957334983
H 3.3583920998 0.8064928669 2.2241017406
H 2.7741030509 3.2349757677 2.4160047116
H 2.9494419162 2.7694262787 0.7139547315
H 1.3403653892 2.9717219615 1.4130720277
H -5.177653849 -0.1378509627 -2.0226709723
H -3.6303491262 -1.0251993462 -2.1828501788
H -3.6688921889 0.7492515501 -2.3928574522
H -3.009342733 -1.4002426366 2.3014206933
H -4.5948155523 -0.6425729166 1.9799452998
H -3.6496095189 -0.1630364044 3.42683695
*
