! pbe def2-sv(p) def2/J RI DEFGRID1 loosescf d4 GCP(DFT/SV(P)) printgap
%output
    printlevel normal
end
* xyz 0 1
C 5.1332004138 -1.082982318 -2.456463647
C 4.3005310051 -0.2419591844 -1.5018522456
O 2.9312781518 -0.6869591425 -1.4787562864
C 2.608911027 -1.6735668709 -0.6652192565
O 3.383188798 -2.2491810034 0.0642613935
C 1.1320486957 -2.0168837845 -0.7661636947
C 0.2733693247 -0.7793248717 -0.5157834565
H 0.5129643506 0.0015757736 -1.244643135
C 0.483137749 -0.2115395501 0.8749361513
O -0.4352316696 -0.0287355235 1.6484669825
O 1.7388851633 0.0467502576 1.1156970033
C 2.0849609959 0.675263721 2.3707089926
C 2.1122635973 2.1855888075 2.2079664504
S -1.4922162905 -1.203685331 -0.6801035798
P -2.3233448546 0.6802840669 -0.116459189
S -1.2028359594 2.2835457282 -0.1573280578
O -3.4440633971 0.8473229021 -1.232642186
C -4.4689789579 -0.1343167113 -1.4659663103
O -3.2636239546 0.453884371 1.1545758159
C -2.9635072387 0.7119283734 2.525616815
H 4.6943861502 -1.0667038016 -3.4502748997
H 6.1397201475 -0.6806995496 -2.5033442551
H 5.1797011023 -2.1110539098 -2.1048707146
H 4.2439160605 0.7957530793 -1.8310569454
H 4.7002736434 -0.2990853792 -0.4857213037
H 0.9024191039 -2.7983887647 -0.0415757988
H 0.9262545194 -2.3888817391 -1.7709148473
H 1.3526687728 0.3728909086 3.1235054635
H 3.0696996507 0.2756177277 2.6147239457
H 2.8524798269 2.4723729758 1.4667511157
H 1.1383849895 2.5456529834 1.8797880429
H 2.3588549262 2.6443770625 3.1594350566
H -4.0166128171 -1.1120775134 -1.6356703915
H -4.9916320655 0.2069431026 -2.3558181835
H -5.14278722 -0.176407587 -0.6123530827
H -2.5029220898 -0.1664164421 2.9730638943
H -3.9194363989 0.9339928063 2.9951377186
H -2.2876736584 1.5627365987 2.6121243641
*
