! r2scan-3c def2/J RI DEFGRID2 scfconv6 printgap
%output
    printlevel normal
end
* xyz 0 1
C 5.4641370988 -0.1762867164 -0.8213889899
C 4.455257441 -0.9589968055 -0.0033127412
O 3.4456401302 -0.0844516741 0.5381773264
P 2.0377588854 0.1311340309 -0.171548163
S 2.0939572666 0.5916270927 -2.0796275277
O 1.3723410827 1.166634038 0.8212838374
C 1.4816862556 2.5904975628 0.6333512345
C 2.9057966126 3.07219756 0.8034682166
S 1.0612040397 -1.6649458771 0.3219050882
C -0.1512160668 -1.8083406828 -1.0387398006
S -1.8526763557 -1.8799585269 -0.4450177083
P -2.0377905798 0.1474988735 0.166452064
S -1.2974707457 1.4563683529 -1.090164022
O -1.3872228269 0.2736385778 1.5938549619
C -1.461914817 -0.6897325953 2.6766679883
C -2.8782194617 -1.1023195766 3.0100402962
O -3.5830883798 0.3472633957 0.4663429269
C -4.556261466 0.5838354435 -0.5662631195
C -5.1462315136 -0.7138586197 -1.082492816
H 6.2415436772 -0.8490232371 -1.1685557863
H 4.9777765372 0.2770371907 -1.6826053284
H 5.9102603963 0.6071791235 -0.2152088432
H 4.9204431791 -1.4179236386 0.8709586509
H 3.9766740933 -1.7328246387 -0.6104602409
H 1.0978367434 2.8391477418 -0.3621379113
H 0.8121226855 3.0029090133 1.3898668761
H 2.9264324229 4.1562809815 0.751863747
H 3.3002980103 2.7432726728 1.7613076478
H 3.5276842309 2.6666691527 0.0061502127
H 0.031393497 -2.7477313271 -1.5538421213
H -0.0221710177 -0.9558039346 -1.7119432913
H -0.8547964913 -1.5572092493 2.4015481362
H -0.9870725653 -0.1611760852 3.5046529481
H -3.3116157159 -1.6660629806 2.1865853932
H -2.8599039072 -1.7293807559 3.8962125647
H -3.492388441 -0.2261555893 3.2005137818
H -5.3170768299 1.1990749293 -0.0826338994
H -4.0840431843 1.1561703819 -1.3718762945
H -5.5588423271 -1.2895066711 -0.2589226991
H -5.9364155733 -0.4851240769 -1.7904196612
H -4.3855861703 -1.310173053 -1.5807660264
*
