! pbe def2-sv(p) def2/J RI DEFGRID1 loosescf d4 GCP(DFT/SV(P)) printgap
%output
    printlevel normal
end
* xyz 0 1
C 4.4449573495 -1.8391826647 0.8965872803
C 4.4884033162 -0.3364166218 0.7083850551
O 3.1879941829 0.2645776661 0.8449319478
P 2.0287947699 0.0442655022 -0.2196272152
S 2.6314404864 -0.0192127764 -2.0886019231
O 1.023741072 1.216363903 0.1654943047
C 1.0927102385 2.5083834563 -0.4650993363
C 2.3549466562 3.2544133221 -0.0910434604
S 1.0010223876 -1.6048782096 0.5707253452
C -0.1466233275 -1.9488528984 -0.8029542268
S -0.8719538341 -0.4652229143 -1.5616839975
P -2.0672078944 0.3341513042 0.0150510557
S -2.6178781386 2.1607139514 -0.4158725705
O -1.312612251 0.1778950345 1.3838501497
C -1.6282599706 -0.7510764582 2.4591091267
C -0.7786296623 -0.3464069704 3.6444541241
O -3.2522598648 -0.7205384644 0.1770344115
C -4.2933002328 -0.8011001374 -0.8156718915
C -5.3989610734 -1.6737758054 -0.2577263174
H 5.4583487501 -2.2273656854 0.9095809008
H 3.9491593204 -2.0896574662 1.830969745
H 3.900701022 -2.3015393165 0.0742871794
H 4.8827036314 -0.0847147275 -0.2814424035
H 5.0836692061 0.1512546987 1.4814181038
H 1.027402477 2.3676665539 -1.5501616226
H 0.1941572265 3.0220130155 -0.1163909978
H 2.4533403814 3.3031880905 0.9902933711
H 3.2237427974 2.743410453 -0.5049630654
H 2.3084495168 4.2596651089 -0.4979342228
H -0.925395955 -2.5974067581 -0.4088520027
H 0.3959275208 -2.4369477875 -1.6110384953
H -2.694246748 -0.6769749715 2.6776798463
H -1.3854015668 -1.762924857 2.1302810785
H -0.9827536207 -1.0172360178 4.4725914239
H 0.274159591 -0.4083463241 3.3815303825
H -1.0062530711 0.6740284342 3.9395322718
H -4.6463283659 0.2127668374 -1.0307826739
H -3.8671135292 -1.2253119868 -1.7296388859
H -5.8068660249 -1.2286085656 0.6451351645
H -6.1865880384 -1.7631097566 -0.9984746608
H -5.0132285527 -2.6612770225 -0.0223637651
*
