! pbe def2-sv(p) def2/J RI DEFGRID1 loosescf d4 GCP(DFT/SV(P)) printgap
%output
    printlevel normal
end
* xyz 0 1
C 5.1779562659 -1.3404567983 -2.2819095702
C 4.2037311804 -0.2861595501 -1.7806223099
O 2.8978751003 -0.8523190291 -1.5618181938
C 2.6440582615 -1.4139498471 -0.3980188951
O 3.4325589772 -1.5030544595 0.5155238353
C 1.2154068245 -1.9294301682 -0.3366078543
C 0.248322233 -0.7467143847 -0.4242868569
H 0.3809961395 -0.2150818994 -1.3694992746
C 0.4997151041 0.2029431031 0.7326273977
O -0.2133290464 0.2572127166 1.7127318439
O 1.5893045268 0.9016592007 0.5410910596
C 2.0078136871 1.8075224154 1.5841242064
C 2.6784186504 1.0607990915 2.7256071534
S -1.4705867738 -1.3410095774 -0.3059249324
P -2.4052897758 0.5364564029 0.010531658
S -1.4348687282 2.1040605817 -0.6483246128
O -3.8180976149 0.3034224391 -0.7100429014
C -3.9157454009 0.1667468222 -2.1322979058
O -2.8965658859 0.6887066581 1.5007155712
C -3.5309701743 -0.3831220327 2.2268359298
H 4.7929123001 -1.8071420853 -3.1842416291
H 6.1315727949 -0.8714952239 -2.5004545539
H 5.3261282781 -2.1041987583 -1.5219138202
H 4.0409774041 0.493483096 -2.5247842024
H 4.554083038 0.1517664564 -0.8419733906
H 1.0723292263 -2.4684605013 0.6004832161
H 1.033730435 -2.5976729638 -1.1784932716
H 2.69910745 2.4827305005 1.0804224457
H 1.1282464377 2.3568296922 1.9327891806
H 3.1244382035 1.7757833229 3.4084631363
H 1.947838035 0.4623574116 3.2648768539
H 3.4496425363 0.3996953876 2.3362684439
H -3.5147122031 -0.7988354562 -2.43961105
H -3.3693355265 0.9732434765 -2.6236730203
H -4.976543437 0.2332968834 -2.3593871562
H -2.7949401881 -1.1567796939 2.444042081
H -4.3571929813 -0.7920468311 1.6481194375
H -3.8874202003 0.0731473997 3.1464843737
*
