! pbe def2-sv(p) def2/J RI DEFGRID1 loosescf d4 GCP(DFT/SV(P)) printgap
%output
    printlevel normal
end
* xyz 0 1
C 2.8978432377 2.2180742557 0.8469314456
C 1.5887067033 1.8310048698 1.5030559751
O 1.4536588806 0.4097499243 1.7245497478
P 1.6696622301 -0.7556432344 0.6641813414
S 0.8692394145 -2.4057827857 1.3429814278
O 3.2506148875 -0.8497467213 0.4184814905
C 4.1300108645 -1.3217511892 1.4567464226
C 4.5115229406 -2.7691613794 1.2142377773
S 1.2124351038 -0.1231659178 -1.2915088447
C -0.1049909008 -1.3029397301 -1.7008513121
S -1.709473025 -0.546668934 -2.1183777917
P -1.9918722063 0.7756967601 -0.4795099035
S -3.8330072736 1.3286382142 -0.1091965162
O -0.951780843 1.9585278478 -0.6958652035
C -0.7567379435 2.6648903317 -1.9389707849
C -2.0546256524 3.1166989703 -2.574628097
O -1.2399047925 0.0786047304 0.746142933
C -2.0061176652 -0.5302684558 1.8027516043
C -2.6823202684 -1.8099954218 1.3541240741
H 3.7395499835 1.8796783388 1.4466213705
H 2.9717197441 1.7800679849 -0.1476334794
H 2.937851919 3.2995522804 0.7588919233
H 0.7359619144 2.1565435758 0.9029641946
H 1.5051278609 2.248108489 2.5086152889
H 5.0056480307 -0.671235697 1.4053051019
H 3.6415830429 -1.2021104841 2.4298585755
H 5.2303863664 -3.0823070768 1.9646656274
H 3.6319914858 -3.4063406669 1.2769387658
H 4.9504656104 -2.8744469893 0.2262399027
H -0.2244360659 -1.9914672967 -0.8603665017
H 0.1856176729 -1.8369982261 -2.6024463087
H -0.1356452698 3.5160632494 -1.6550737497
H -0.1961824345 2.0114995385 -2.6148468362
H -2.6323621998 3.716922073 -1.8753237916
H -1.8337891234 3.7066658528 -3.4583692224
H -2.654471952 2.2538784575 -2.8643396802
H -1.272982114 -0.7201494942 2.5884084005
H -2.7486454546 0.1940226885 2.1499787796
H -1.9431766715 -2.5474753457 1.050087727
H -3.2608371961 -2.2126612791 2.1791365291
H -3.3528580111 -1.6021497781 0.5204446756
*
