! pbe def2-sv(p) def2/J RI DEFGRID1 loosescf d4 GCP(DFT/SV(P)) printgap
%output
    printlevel normal
end
* xyz 0 1
C 5.1276563552 -0.4642044452 -1.286233643
C 4.4499297164 -0.5764836163 0.0645604497
O 3.466256069 0.4546500954 0.2717962741
P 2.0278264515 0.5026962527 -0.4079904592
S 1.9410623808 0.8124056341 -2.3366073367
O 1.3543258443 1.6683128759 0.4062610092
C 1.3413943379 1.7194359486 1.8537726935
C 2.3770544512 2.7031415144 2.356644531
S 1.198918384 -1.3409844868 0.265117491
C 0.1112189077 -1.7578560662 -1.1299594419
S -1.5939780646 -2.0518796789 -0.6146350418
P -2.058222419 -0.0755574582 0.022770631
S -1.4299068586 1.3610263747 -1.150787456
O -1.5447523927 0.0671880619 1.5039675301
C -1.9896080736 -0.8352176977 2.5595456828
C -0.8160644853 -1.1471584736 3.4639703682
O -3.6306539 -0.1541937312 0.2291171777
C -4.5339299974 -0.2263150801 -0.8936376993
C -5.9202813703 0.1274830663 -0.3954692507
H 4.4104924062 -0.6280500675 -2.0876955926
H 5.5579839343 0.5262514312 -1.4097786082
H 5.914134455 -1.2088738746 -1.3540954314
H 5.1616946113 -0.4190670642 0.8772997029
H 3.9678951877 -1.5509427961 0.1820359892
H 0.3266600824 2.0343487012 2.1077274891
H 1.5229758816 0.7144425895 2.2452749246
H 2.3108564938 2.7674070482 3.4381752223
H 3.3735640915 2.3748346542 2.0733342428
H 2.1965780686 3.6840322735 1.925293641
H 0.4592827075 -2.6895556037 -1.5687885001
H 0.1520564244 -0.9395643461 -1.8552062653
H -2.7874070623 -0.3178201289 3.0938391921
H -2.3889911778 -1.743233575 2.09992355
H -0.4183253984 -0.23250168 3.8937433713
H -1.1545963599 -1.8000872332 4.2620159369
H -0.0302776001 -1.6478219823 2.9036058577
H -4.1899399491 0.472974785 -1.6628387811
H -4.4986516811 -1.2435802736 -1.2923995486
H -5.9279394398 1.1393947087 -0.0002891236
H -6.6220985166 0.0597922745 -1.2200764075
H -6.2184129499 -0.5609002221 0.3897183199
*
