! pbe def2-sv(p) def2/J RI DEFGRID1 loosescf d4 GCP(DFT/SV(P)) printgap
%output
    printlevel normal
end
* xyz 0 1
C 4.3602314499 0.6847199539 -2.1947700091
C 4.6634345888 0.1471251314 -0.8123449414
O 3.7035749901 0.5738912575 0.172784964
P 2.1340432545 0.3589593134 0.0801299272
S 1.0873452572 1.5876290095 -1.0403310026
O 1.7048463451 0.5654216871 1.5837470675
C 2.3782268662 0.0363564617 2.7564135581
C 1.9411457647 -1.3810678989 3.0686666927
S 1.9649707899 -1.6979313316 -0.4438399622
C 0.2134268751 -1.7060979234 -0.866032567
S -0.8454507591 -1.1921354297 0.5236630333
P -2.1122652062 0.2221575167 -0.436680127
S -2.0285444856 0.25219075 -2.3919463862
O -1.9152642491 1.635776491 0.2193335392
C -1.5350632053 1.9188897886 1.5869873077
C -2.4158596607 1.2240943441 2.6018569919
O -3.5486549046 -0.1804644649 0.1220633406
C -4.2227848707 -1.3674724607 -0.3357975049
C -5.6900940933 -1.239207536 0.0204102921
H 5.1514716826 0.3941663813 -2.8782212111
H 3.4142549657 0.2832033015 -2.5563820658
H 4.2824930443 1.7693546744 -2.1724498639
H 5.6097665415 0.5364563511 -0.4326694905
H 4.6837480981 -0.9459671896 -0.8177431308
H 3.4556914236 0.0997152898 2.5989403504
H 2.0791650491 0.7261951458 3.5472655767
H 0.8558527356 -1.4461799246 3.0751255946
H 2.327071012 -2.0794916945 2.330973823
H 2.3216227423 -1.6558309852 4.0473830226
H -0.0272987931 -2.7334474555 -1.1279535536
H 0.0217977043 -1.0304057032 -1.7049227014
H -0.4851105514 1.6360300318 1.7079169693
H -1.6246640278 3.0049074751 1.6452816948
H -2.2895746355 0.1443881668 2.5365396396
H -2.1344808294 1.554269871 3.597046007
H -3.4591885954 1.4686401472 2.4201885895
H -4.0786758881 -1.4548275222 -1.4183182559
H -3.7660255673 -2.2297086202 0.1582522733
H -5.804366866 -1.1342072824 1.0952090014
H -6.1155126366 -0.3661048807 -0.4664462975
H -6.2159977588 -2.1274897169 -0.3134763421
*
