! pbe def2-sv(p) def2/J RI DEFGRID1 loosescf d4 GCP(DFT/SV(P)) printgap
%output
    printlevel normal
end
* xyz 0 1
C 0.8455074093 1.2819578323 -1.0092814759
C 1.4424772163 0.3105601291 0.0132076074
H 2.4583457888 0.0556153937 -0.3043694517
C 0.6253480596 -0.9999717834 0.0427925869
H 0.6024897372 -1.3546394201 1.084634958
C -0.8247589586 -0.7729189852 -0.4372769926
H -0.8556207457 -0.8935352249 -1.5253581392
C -1.2846250736 0.6520126724 -0.0993483149
H -2.3114713798 0.7995494348 -0.4642798271
O -0.5103432691 1.6325019659 -0.7303459418
O -1.2474198295 0.7902541614 1.2992816954
O -1.7122730829 -1.7259343067 0.0841854037
O 1.2867382446 -1.9362217625 -0.7742205103
O 1.5706406162 0.8856690576 1.2864701603
H 0.9086347637 0.829756312 -2.0053513068
H 1.3936052227 2.2250844366 -0.998418093
H -1.6930975137 1.6100146295 1.5614304085
H -1.8339613818 -1.558616528 1.0318971202
H 0.8008910831 -2.7739974202 -0.7576528631
H 0.6749629421 1.055426084 1.633379832
*
