! pbe def2-sv(p) def2/J RI DEFGRID1 loosescf d4 GCP(DFT/SV(P)) printgap
%output
    printlevel normal
end
* xyz 0 1
C 2.3523029269 -2.8130858466 -1.4086503969
C 3.3487743801 -1.7072747538 -1.6871567977
O 3.5242110576 -0.8156609775 -0.5625042544
P 2.3956925113 0.0517179678 0.1333340309
S 3.1691521407 1.5312764651 1.1479985637
O 1.4829120161 -0.9370658914 1.0005529766
C 1.6739543281 -1.082840546 2.4200395743
C 2.9179419537 -1.8926777711 2.723055264
S 1.0749820873 0.5514890035 -1.4418589897
C 0.247888408 1.9066491059 -0.5719968259
S -0.8183421782 1.3450566207 0.7714943474
P -2.1983359575 0.273404873 -0.471398455
S -2.4654044618 0.9949181308 -2.2688453022
O -3.4613364838 0.1117436851 0.4786357302
C -4.113240764 1.1808498389 1.1895783
C -4.5317910171 2.3200991384 0.2845796216
O -1.6734070521 -1.2101441232 -0.5610810639
C -1.5392994747 -2.077923642 0.5904044812
C -2.6916620497 -3.0593259207 0.6450687618
H 2.6355146722 -3.3604234432 -0.5134262844
H 1.3560080376 -2.3950966685 -1.2746441382
H 2.3345149298 -3.4939000269 -2.254142585
H 3.0382848056 -1.1131389382 -2.5508478857
H 4.3530705581 -2.1011392634 -1.8517610919
H 1.742788122 -0.08653503 2.8682424537
H 0.7687540446 -1.5827846658 2.7666133869
H 3.7926142472 -1.3804082668 2.3220305155
H 3.0302273917 -1.9950978894 3.7976583348
H 2.8497770174 -2.879048397 2.2721788255
H -0.354199937 2.4226366921 -1.3199873996
H 0.9944916493 2.566284307 -0.1287637632
H -4.9787795986 0.6957374283 1.6443249367
H -3.4335048047 1.5363933152 1.9690103176
H -3.6545821404 2.8085587901 -0.137196319
H -5.1431339733 1.9494017722 -0.5347294036
H -5.099243886 3.0461450167 0.8578053393
H -0.5848360016 -2.588538028 0.4483488067
H -1.4960074908 -1.4638389978 1.4940799143
H -2.7353125907 -3.6313086886 -0.2775120359
H -2.5459229688 -3.7355602047 1.4815624011
H -3.6309027062 -2.5269571931 0.7703712888
*
