  18
  -26.5553358300000       8.308438156645967E-002 !md3
 C         -3.2036340606        0.5626629245       -0.0088804593
 O         -2.2972779110       -0.5194686044       -0.0009625331
 C         -0.9483693202       -0.2383536217        0.0014446330
 C         -0.0978856201       -1.3425833568        0.0023355459
 C          1.2692232552       -1.1770958075        0.0079238392
 C          1.8359990583        0.1008824340        0.0109458520
 C          0.9763743454        1.1977156118        0.0120888880
 C         -0.3979673268        1.0357028930        0.0062470528
 N          3.2042033086        0.2689068955       -0.0610880149
 H         -3.0906124807        1.1818111205        0.8859019224
 H         -4.1925339883        0.1092228459       -0.0158794149
 H         -3.0768287760        1.1800447953       -0.9029602701
 H         -0.5376233548       -2.3277869247        0.0013227555
 H          1.9126758198       -2.0442411695        0.0077280875
 H          1.3893539126        2.1957149449        0.0150782424
 H         -1.0247622636        1.9132091763        0.0081967850
 H          3.7558879713       -0.5181279759        0.2384636394
 H          3.5509186136        1.1635975836        0.2437675317
  18
  -26.5553358300000       8.308438156645967E-002 !md6
 C         -3.2036586125        0.5626105938       -0.0087301924
 O         -2.2972608562       -0.5194661675       -0.0011075705
 C         -0.9483555880       -0.2383251843        0.0013726921
 C         -0.0979004622       -1.3425514552        0.0023955045
 C          1.2692204157       -1.1771027273        0.0079519872
 C          1.8359975777        0.1008616505        0.0109946401
 C          0.9764023029        1.1977203320        0.0121049374
 C         -0.3979459077        1.0357331440        0.0061706391
 N          3.2041897480        0.2688982303       -0.0611144283
 H         -3.0767079497        1.1804449773       -0.9024671568
 H         -3.0908660398        1.1812885318        0.8863982254
 H         -4.1925115338        0.1091043387       -0.0162058603
 H         -0.5376638560       -2.3277218981        0.0014093408
 H          1.9126108411       -2.0442418241        0.0077179975
 H          1.3893752623        2.1957408308        0.0151387251
 H         -1.0247618021        1.9132722383        0.0081124740
 H          3.5508151909        1.1635844443        0.2438044235
 H          3.7558719389       -0.5181275494        0.2385350968
  18
  -26.5553357400000       8.307646919145487E-002 !md3
 C         -3.2035417038        0.5627052765       -0.0110886031
 O         -2.2973416750       -0.5194170114       -0.0000017229
 C         -0.9483559288       -0.2384359801        0.0023263594
 C         -0.0979020480       -1.3426287754        0.0026731683
 C          1.2692310103       -1.1771137452        0.0076975131
 C          1.8360071681        0.1008447484        0.0108045545
 C          0.9763758186        1.1976688648        0.0129745749
 C         -0.3979560482        1.0356411091        0.0075884794
 N          3.2041384397        0.2690233330       -0.0622594294
 H         -3.0749779489        1.1788760029       -0.9057894139
 H         -3.0922288170        1.1831189420        0.8830583747
 H         -4.1924613365        0.1093575205       -0.0193722833
 H         -0.5375328084       -2.3278761269        0.0015592304
 H          1.9126494649       -2.0442627380        0.0069200489
 H          1.3892910502        2.1957052265        0.0163407470
 H         -1.0248069825        1.9131319536        0.0102806071
 H          3.7562832330       -0.5178824832        0.2368686033
 H          3.5507678266        1.1638131876        0.2424045690
  18
  -26.5553357100000       8.307383190067630E-002 !md6
 C         -3.2036193985        0.5626568125       -0.0075405919
 O         -2.2973125938       -0.5194528864       -0.0012432890
 C         -0.9483806631       -0.2383916270        0.0008800560
 C         -0.0979020890       -1.3425795296        0.0019913441
 C          1.2692403052       -1.1771344196        0.0078543583
 C          1.8360345539        0.1008139427        0.0109175278
 C          0.9763841005        1.1976478416        0.0113263000
 C         -0.3979498356        1.0356762685        0.0053171574
 N          3.2042170629        0.2689925748       -0.0599728893
 H         -4.1924878866        0.1091816033       -0.0154177381
 H         -3.0767212551        1.1816013527       -0.9005778616
 H         -3.0905504711        1.1801912097        0.8884360274
 H         -0.5375867686       -2.3278038312        0.0009732821
 H          1.9125859075       -2.0442899073        0.0080479778
 H          1.3893458214        2.1956779793        0.0141951492
 H         -1.0247417251        1.9132135796        0.0068526925
 H          3.5500794282        1.1645038619        0.2434761021
 H          3.7561176492       -0.5173902836        0.2407909527
  18
  -26.5553356700000       8.307031564310072E-002 !gc
 C         -3.2034481986        0.5626722840        0.0305682889
 O         -2.2971245616       -0.5194910035        0.0208532483
 C         -0.9483566694       -0.2382539935        0.0071072610
 C         -0.0978986400       -1.3425446284        0.0034846290
 C          1.2690988797       -1.1771025862       -0.0133964577
 C          1.8357877477        0.1008704772       -0.0255304517
 C          0.9762495348        1.1976948520       -0.0236913217
 C         -0.3980327595        1.0357599191       -0.0064108874
 N          3.2045951927        0.2689734898        0.0350581202
 H         -4.1922924343        0.1094207433        0.0452473064
 H         -3.0958149612        1.1786902854       -0.8670791119
 H         -3.0710631407        1.1831869671        0.9217227064
 H         -0.5377508075       -2.3276451912        0.0115097387
 H          1.9126242856       -2.0441776567       -0.0150367364
 H          1.3891634275        2.1956854657       -0.0334806932
 H         -1.0248456141        1.9132708000       -0.0063904814
 H          3.7534670065       -0.5196052768       -0.2657897987
 H          3.5491643751        1.1620791427       -0.2768168306
  18
  -26.5553354500000       8.305097888648694E-002 !md6
 C         -3.2035274269        0.5626474344        0.0313972007
 O         -2.2971891303       -0.5194294281        0.0215025951
 C         -0.9483399087       -0.2382902696        0.0065049968
 C         -0.0978698911       -1.3425306380        0.0027632659
 C          1.2691491542       -1.1771411807       -0.0138050658
 C          1.8358859087        0.1008325597       -0.0254335529
 C          0.9762768253        1.1976526937       -0.0244348169
 C         -0.3979899408        1.0357052625       -0.0075500976
 N          3.2044804064        0.2690063796        0.0363376680
 H         -3.0675365669        1.1863307046        0.9197706601
 H         -4.1922309612        0.1091790449        0.0519717868
 H         -3.0998362009        1.1754784880       -0.8688841210
 H         -0.5376715110       -2.3276753255        0.0106046903
 H          1.9125535419       -2.0442924665       -0.0156984357
 H          1.3891617985        2.1956542953       -0.0344466382
 H         -1.0248156507        1.9132292096       -0.0083438519
 H          3.5491335346        1.1630389942       -0.2726674874
 H          3.7543117473       -0.5188449615       -0.2644640173
  18
  -26.5553351500000       8.302461783575026E-002 !mtd14
 C         -3.1498292034       -0.8114186160       -0.0140638624
 O         -2.3308794485        0.3381841090        0.0025642896
 C         -0.9641177161        0.1634304815        0.0026839860
 C         -0.3157420726       -1.0636539390       -0.0052813996
 C          1.0670738316       -1.1177237017        0.0000150669
 C          1.8382206355        0.0429147332        0.0108434427
 C          1.1732766937        1.2726306271        0.0201760637
 C         -0.2025853195        1.3307094353        0.0153712481
 N          3.2155066558       -0.0167800055       -0.0616391913
 H         -4.1711426690       -0.4366676752       -0.0154663636
 H         -2.9867040126       -1.4279288878        0.8747924347
 H         -2.9770585756       -1.4088090506       -0.9140229534
 H         -0.8720048397       -1.9874854937       -0.0128247437
 H          1.5568109128       -2.0803751125       -0.0068227812
 H          1.7469334929        2.1873733573        0.0291743851
 H         -0.7180409623        2.2784535859        0.0240895336
 H          3.6306563525       -0.8849862625        0.2342673822
 H          3.7037005309        0.8073901642        0.2482406583
  18
  -26.5553351200000       8.302198219069851E-002 !md5
 C         -3.1496710332       -0.8116319984        0.0321518971
 O         -2.3308318396        0.3380940437        0.0191327907
 C         -0.9640954368        0.1633912542        0.0063084513
 C         -0.3157122222       -1.0636792893       -0.0033548337
 C          1.0670061228       -1.1176248082       -0.0200782929
 C          1.8381345052        0.0431127249       -0.0250678286
 C          1.1731381485        1.2728123112       -0.0168647905
 C         -0.2026543940        1.3307618933       -0.0006168678
 N          3.2158285766       -0.0172941232        0.0360825488
 H         -4.1709221826       -0.4369503091        0.0456258937
 H         -2.9693306044       -1.4172483520        0.9250666208
 H         -2.9941725092       -1.4199938069       -0.8636997079
 H         -0.8719440522       -1.9875598534       -0.0008887927
 H          1.5567532241       -2.0802667163       -0.0269063690
 H          1.7466786633        2.1876434544       -0.0210002231
 H         -0.7181023826        2.2785341707        0.0043729380
 H          3.7017336390        0.8104877260       -0.2675601630
 H          3.6290283271       -0.8821231104       -0.2721812282
  18
  -26.5553350300000       8.301407575817353E-002 !md1
 C         -3.1495978336       -0.8115345905        0.0352838834
 O         -2.3308120510        0.3381155596        0.0172019903
 C         -0.9640604766        0.1633525114        0.0051873106
 C         -0.3157102781       -1.0637353974       -0.0035111306
 C          1.0670263381       -1.1176200523       -0.0195202720
 C          1.8381371058        0.0431143064       -0.0248785386
 C          1.1730759966        1.2728085841       -0.0178652417
 C         -0.2026865379        1.3307606104       -0.0022732835
 N          3.2157339519       -0.0172381573        0.0372544150
 H         -2.9968912603       -1.4218499810       -0.8598131847
 H         -4.1708899361       -0.4368109600        0.0512255004
 H         -2.9664296615       -1.4152816500        0.9290007544
 H         -0.8719207082       -1.9876430011       -0.0009314943
 H          1.5567887282       -2.0802323887       -0.0254658848
 H          1.7466017556        2.1876393860       -0.0224058698
 H         -0.7182538641        2.2784767866        0.0018218469
 H          3.6291775924       -0.8828770041       -0.2684311670
 H          3.7020800641        0.8099364306       -0.2671518256
  18
  -26.5553350200000       8.301319731239340E-002 !mtd11
 C         -3.1497370812       -0.8115265748        0.0325029166
 O         -2.3307259919        0.3381313260        0.0192677226
 C         -0.9640694600        0.1632921550        0.0061312693
 C         -0.3157160275       -1.0637721924       -0.0036121927
 C          1.0670229823       -1.1176390754       -0.0202585080
 C          1.8381359500        0.0431140690       -0.0251459283
 C          1.1731211038        1.2728564250       -0.0172364196
 C         -0.2026579033        1.3307131564       -0.0010260513
 N          3.2157384831       -0.0172595816        0.0366453007
 H         -2.9940859312       -1.4202250331       -0.8631034882
 H         -4.1709568701       -0.4365537327        0.0456177212
 H         -2.9697201470       -1.4168960750        0.9258273040
 H         -0.8719055946       -1.9876679684       -0.0012225081
 H          1.5568754282       -2.0802378646       -0.0272429131
 H          1.7466356901        2.1877041706       -0.0211620417
 H         -0.7183771029        2.2783337459        0.0040422274
 H          3.7020664783        0.8106607768       -0.2661536726
 H          3.6293116448       -0.8824258149       -0.2703576359
  18
  -26.5553350200000       8.301319731239340E-002 !mtd8
 C         -3.1497325373       -0.8115158163        0.0320318636
 O         -2.3308223889        0.3380636515        0.0193412908
 C         -0.9640649144        0.1633280833        0.0062722383
 C         -0.3157013260       -1.0637389468       -0.0034846067
 C          1.0670187782       -1.1176068862       -0.0200644982
 C          1.8381758870        0.0431388078       -0.0250820125
 C          1.1731271175        1.2728163836       -0.0168830412
 C         -0.2026673336        1.3307062165       -0.0005934868
 N          3.2158287386       -0.0172815820        0.0361082239
 H         -2.9674873961       -1.4190645767        0.9232535786
 H         -2.9964688864       -1.4179878179       -0.8655060291
 H         -4.1709445440       -0.4366433098        0.0487731097
 H         -0.8719059299       -1.9876440736       -0.0012912203
 H          1.5568505522       -2.0802102676       -0.0270499669
 H          1.7465373268        2.1877543221       -0.0210930403
 H         -0.7182262575        2.2784241889        0.0046076744
 H          3.6292199911       -0.8821269007       -0.2717150442
 H          3.7018760503        0.8104995647       -0.2674646734
  18
  -26.5553350000000       8.301144044809572E-002 !mtd2
 C         -3.1499581313       -0.8111617281       -0.0188635614
 O         -2.3308441220        0.3382063888        0.0050902766
 C         -0.9640534791        0.1632888525        0.0046344969
 C         -0.3157006023       -1.0637346761       -0.0048170873
 C          1.0671399647       -1.1178125273       -0.0005728208
 C          1.8383242370        0.0428382434        0.0104068307
 C          1.1732789613        1.2725559027        0.0218809456
 C         -0.2025555796        1.3306045297        0.0181949160
 N          3.2152344138       -0.0165476478       -0.0636963988
 H         -2.9895153799       -1.4316530172        0.8677640095
 H         -2.9747593835       -1.4045668518       -0.9210707861
 H         -4.1712273756       -0.4360878766       -0.0215036413
 H         -0.8719910757       -1.9875729933       -0.0127598349
 H          1.5568491121       -2.0804728684       -0.0085887283
 H          1.7469388355        2.1873085349        0.0313890293
 H         -0.7181088360        2.2782799450        0.0282372205
 H          3.7044000824        0.8072993408        0.2452500368
 H          3.6316593865       -0.8854530397        0.2278645402
  18
  -26.5508612600000       7.297084887181024E-004 !gc
 C         -3.0805319098        0.0087103240        0.7440782108
 O         -2.3352225130       -0.1802012640       -0.4459575452
 C         -0.9537461862       -0.0874965380       -0.2611253401
 C         -0.2064954600       -1.2303360978       -0.0077871028
 C          1.1628391636       -1.1472955687        0.1356225878
 C          1.8202211298        0.0830394111        0.0373888039
 C          1.0548590504        1.2254900261       -0.2170139497
 C         -0.3143327444        1.1414433936       -0.3606573097
 N          3.1720537837        0.1765132620        0.2523991467
 H         -4.1267131896       -0.0803073831        0.4602424160
 H         -2.8937419800        0.9991195029        1.1714711720
 H         -2.8304137693       -0.7548928931        1.4878063607
 H         -0.7092270799       -2.1835030172        0.0624749858
 H          1.7367528418       -2.0415467551        0.3276560677
 H          1.5446315184        2.1841746886       -0.3007988706
 H         -0.8996880361        2.0260011273       -0.5638882015
 H          3.6264504923        1.0090570956       -0.0822949640
 H          3.7027438040       -0.6737732775        0.1686810229
  18
  -26.5508584600000       7.275496021047531E-004 !mtd3
 C         -3.0858698467       -0.0136732941       -0.7230706126
 O         -2.3320591102       -0.1671517203        0.4666945056
 C         -0.9519219737       -0.0804783522        0.2691662565
 C         -0.2103060278       -1.2252480963        0.0078250460
 C          1.1580303569       -1.1460362230       -0.1467668043
 C          1.8199530370        0.0821075048       -0.0515718314
 C          1.0602140734        1.2265134821        0.2104577537
 C         -0.3080656390        1.1463594644        0.3649037832
 N          3.1705039864        0.1717763773       -0.2770957013
 H         -2.8387062880       -0.7965553624       -1.4473637778
 H         -2.9046470872        0.9652481265       -1.1784814893
 H         -4.1298463073       -0.0975091927       -0.4297203593
 H         -0.7160535705       -2.1770497016       -0.0597450779
 H          1.7277298015       -2.0416391209       -0.3449566067
 H          1.5535103002        2.1836277912        0.2913597062
 H         -0.8894784282        2.0320519054        0.5741814381
 H          3.6294739390        1.0025620811        0.0559716444
 H          3.6994177875       -0.6799356216       -0.1958413568
  18
  -26.5508579500000       7.271570645265376E-004 !gc
 C         -3.0891491587       -0.0131625120       -0.7196817476
 O         -2.3313805060       -0.1677264561        0.4673295613
 C         -0.9517210903       -0.0802882868        0.2670994798
 C         -0.2099557282       -1.2250775693        0.0061681753
 C          1.1585075007       -1.1460019007       -0.1473632400
 C          1.8205310761        0.0820140018       -0.0513729371
 C          1.0604348721        1.2267339734        0.2082731055
 C         -0.3079688336        1.1467172840        0.3617273142
 N          3.1716727259        0.1711652647       -0.2735519806
 H         -2.9121187342        0.9674034605       -1.1732020038
 H         -4.1319478570       -0.1005468691       -0.4230932883
 H         -2.8423527963       -0.7935764533       -1.4467516042
 H         -0.7156862588       -2.1768830082       -0.0613817311
 H          1.7282935075       -2.0416996826       -0.3449259438
 H          1.5536718006        2.1839415646        0.2885111988
 H         -0.8894716778        2.0326608909        0.5696869103
 H          3.6303345701        1.0014826148        0.0610925515
 H          3.6998149751       -0.6809361234       -0.1912449587
  18
  -26.5507375600000       6.401781019741745E-004 !mtd2
 C         -3.0949823347        0.0111913695       -0.6892117899
 O         -2.3266613551       -0.1865328663        0.4844847181
 C         -0.9490588626       -0.0899695499        0.2744841368
 C         -0.2038114249       -1.2315982670        0.0099253782
 C          1.1615291153       -1.1448499820       -0.1655720887
 C          1.8173299706        0.0876772714       -0.0848956379
 C          1.0537917912        1.2291792917        0.1793296714
 C         -0.3114193304        1.1412884496        0.3551841707
 N          3.1824613171        0.1652617137       -0.1936637723
 H         -4.1354314361       -0.0803808398       -0.3858862231
 H         -2.8593397429       -0.7470157864       -1.4432368356
 H         -2.9170259413        1.0047723379       -1.1129037897
 H         -0.7056905276       -2.1859423293       -0.0493597761
 H          1.7341461329       -2.0381702515       -0.3655683705
 H          1.5424167213        2.1895467280        0.2494188615
 H         -0.8952479218        2.0256653490        0.5636399581
 H          3.5714248803        1.0727532152       -0.3849983412
 H          3.6474350993       -0.6116147781       -0.6314509633
  18
  -26.5507321700000       6.365371305335669E-004 !mtd10
 C         -3.0951441636       -0.0219989016       -0.6928598947
 O         -2.3270772743       -0.1672426688        0.4886365156
 C         -0.9493384000       -0.0794735051        0.2753820436
 C         -0.2093473601       -1.2241485758        0.0087970609
 C          1.1562118339       -1.1431349936       -0.1675655024
 C          1.8177247122        0.0862968910       -0.0852265533
 C          1.0592222684        1.2309989460        0.1797331373
 C         -0.3062943639        1.1489084854        0.3559813834
 N          3.1830208198        0.1578994175       -0.1931477083
 H         -2.8514615882       -0.8055306972       -1.4177357739
 H         -2.9255672638        0.9568502862       -1.1530871676
 H         -4.1352127766       -0.1115223492       -0.3875291597
 H         -0.7148758732       -2.1765936322       -0.0511847312
 H          1.7247473585       -2.0388604535       -0.3685586591
 H          1.5520360963        2.1891831553        0.2500338843
 H         -0.8868056770        2.0352361403        0.5651219916
 H          3.5769568555        1.0636510583       -0.3822005868
 H          3.6458012054       -0.6215111403       -0.6286724946
