! r2scan-3c def2/J RI DEFGRID2 scfconv6 printgap
%output
    printlevel normal
end
* xyz 0 1
C 1.1730775664 -0.1550062752 -3.1892715416
C 2.3033607406 0.4305808543 -2.366043444
O 2.7688986827 -0.5320221144 -1.4060492186
P 2.5340205024 -0.4328024737 0.1538969212
S 2.7059760647 1.3708174904 0.9166060325
O 3.656849684 -1.4878206496 0.5152037123
C 3.7181663544 -2.233645019 1.7436802456
C 3.8911677967 -1.34222282 2.9573324313
S 0.7139585102 -1.4560285451 0.5738909666
C -0.0124268003 -0.3255490542 1.8149949486
S -1.8051986655 -0.2408371778 1.6707921443
P -1.9076252541 0.5813896726 -0.2939337496
S -0.575431606 1.9516694333 -0.7141714963
O -3.4233937965 1.0455316565 -0.3782791368
C -3.8964119215 2.1867485502 0.3666415099
C -5.2580624539 2.5644959757 -0.1798828247
O -1.8538518572 -0.6284312122 -1.2985043478
C -2.7538154753 -1.7650619066 -1.2313920653
C -3.9065073543 -1.5894390714 -2.197489083
H 0.9081179061 0.5454685002 -3.9747343853
H 1.4856505761 -1.0975810923 -3.6292605396
H 0.2972261817 -0.3265701613 -2.566481783
H 1.98771417 1.3446702797 -1.8503649438
H 3.170484858 0.6543464842 -2.9909324398
H 2.8106069528 -2.8391861218 1.8287664434
H 4.5821328728 -2.8854379806 1.6031203666
H 3.0247935543 -0.6931036667 3.0772214221
H 4.0027683806 -1.9574329367 3.8443577477
H 4.7706933557 -0.7138944924 2.840685606
H 0.4249630713 0.6674788002 1.6712571588
H 0.1887952777 -0.7083819236 2.8124851712
H -3.9517445108 1.9066222928 1.4219886204
H -3.1751104118 3.0022205136 0.2497949431
H -5.635334959 3.421587599 0.3680359756
H -5.1803628573 2.8191231168 -1.2331558609
H -5.9481482037 1.733624725 -0.0661704506
H -2.1303374526 -2.6203195967 -1.4981613734
H -3.1088547827 -1.8747431319 -0.2031269928
H -4.5297196387 -2.4777454377 -2.16951542
H -4.501221704 -0.7235927399 -1.9194838406
H -3.5299137363 -1.4465241823 -3.2065107271
*
