! pbe def2-sv(p) def2/J RI DEFGRID1 loosescf d4 GCP(DFT/SV(P)) printgap
%output
    printlevel normal
end
* xyz 0 1
C 2.4193400755 0.4014909028 3.3804789492
C 1.7270322798 0.657159531 2.0559400965
O 2.5835170022 0.2035228326 0.9952321109
P 2.147306057 -0.7047598321 -0.2367152405
S 0.570478349 -1.8338175693 0.0920921447
O 3.507450559 -1.4108237744 -0.6230870198
C 4.425101301 -1.9726810274 0.3406642612
C 3.8169618004 -3.1340440949 1.099858669
S 2.064075427 0.5353374788 -1.9426669455
C 0.2818505525 0.8392564494 -2.0009864407
S -0.3263034378 1.7490806906 -0.5357168064
P -2.0485196823 0.6030348355 -0.0773500654
S -2.6302215267 -0.7408805206 -1.3861435619
O -3.1518910621 1.6968691093 0.2661305311
C -4.0418176851 2.2407813995 -0.7218883377
C -3.3113060339 3.0621898922 -1.7649898935
O -1.6666878 0.120430657 1.3807433196
C -2.2941707556 -1.0152217532 2.0097559418
C -3.7734291579 -0.7941073308 2.2415458635
H 1.8038631995 0.7954956579 4.1824985506
H 2.5633358243 -0.6652895899 3.5324087485
H 3.3866715971 0.8953760951 3.3949000636
H 1.5509098369 1.7233061712 1.8941886255
H 0.7721500602 0.1240244602 1.9981149547
H 5.270532716 -2.2918620306 -0.2707923035
H 4.7374395064 -1.1784580146 1.0221387143
H 2.9591686261 -2.7944066839 1.67952315
H 3.4774589422 -3.9016163058 0.4083100979
H 4.5576368834 -3.5561408296 1.7717468192
H -0.26188786 -0.1070846804 -2.0702075077
H 0.1181720261 1.450335734 -2.8850050045
H -4.5781984085 1.4124313737 -1.1958310386
H -4.7352670932 2.8506266949 -0.1414251716
H -4.0353152878 3.5516835787 -2.4084303733
H -2.6854276368 3.8115561374 -1.2870588291
H -2.6829350941 2.4121053098 -2.373037348
H -2.1177590848 -1.8947829782 1.3813772447
H -1.7486573322 -1.1255798201 2.9480599018
H -3.9315844482 0.1284433351 2.7940192435
H -4.2926279196 -0.7277883593 1.2859860457
H -4.1770278152 -1.6301607512 2.8040078156
*
