! wb97x-v def2-tzvp def2/J RIJCOSX DEFGRID2 scfconv7 GCP(DFT/TZ) printgap
%output
    printlevel normal
end
%cpcm
    smd true
    smdsolvent "water"
end
* xyz 0 1
C 1.4996535085117249 0.3319719110205792 -0.4849691255595027
C 0.8197245629937073 -0.2550126463679429 0.4968426887071223
C -0.6682475793072965 -0.3816763031594739 0.5744731322220038
O -1.3725036625127671 0.17130429493221516 -0.5389762921630464
H 2.583509407244696 0.3872998470351005 -0.45492364976877436
H 1.003226358212799 0.7724463417560639 -1.345478862510726
H 1.349023094542464 -0.686980462764196 1.3460730845565518
H -1.0173827702269362 0.06720478748966957 1.5180737170132168
H -0.9422768844914069 -1.4432453175706463 0.6163026416201021
H -1.1786464442622988 1.117750467431307 -0.5663427933716015
*
