! pbe def2-sv(p) def2/J RI DEFGRID1 loosescf d4 GCP(DFT/SV(P)) printgap
%output
    printlevel normal
end
* xyz 0 1
C 4.3768837432 -0.7942939154 -1.6319557568
C 4.5029068298 0.5349601047 -0.9156982566
O 3.6475004276 0.6217330379 0.2349864441
P 2.0576623403 0.6124077994 0.1250935364
S 1.3492643686 1.6017726546 -1.4122545016
O 1.6489058786 1.236540109 1.5162577251
C 2.4377316628 1.134171831 2.7309666224
C 2.6416792481 -0.2974913927 3.1804371118
S 1.5191871001 -1.4507190698 0.2298775875
C 0.402069629 -1.6210318809 -1.189531306
S -1.2895089278 -2.0455600093 -0.6968875317
P -2.0292094648 -0.0628656352 -0.4725044618
S -2.0283478593 1.0260945683 -2.0972515661
O -1.2159406224 0.5586064285 0.7304338316
C -1.3576354717 0.0489388624 2.0855847258
C -2.3409356948 0.8887237381 2.8718699781
O -3.4621536253 -0.3152505804 0.1591229757
C -4.5385485865 -0.8381983312 -0.6472743188
C -5.8377889581 -0.581165348 0.0883867808
H 4.5011357759 -1.6175940865 -0.9332198538
H 3.3966014087 -0.869233372 -2.101272276
H 5.1374029263 -0.8575832976 -2.4035749499
H 4.2557326482 1.3587745223 -1.5924863718
H 5.5035397793 0.6774046184 -0.5050876207
H 3.3964618291 1.6247506365 2.5543742565
H 1.8557381631 1.70852417 3.4536496101
H 3.2049434667 -0.2963580304 4.1085638561
H 1.6901958102 -0.7971552997 3.3427413635
H 3.1999186612 -0.8515217391 2.4279433808
H 0.760674143 -2.4438239458 -1.8017057049
H 0.3897915044 -0.6796601695 -1.7493320557
H -1.6691807112 -0.9980540075 2.039060021
H -0.3538818255 0.1203509791 2.5055148102
H -2.3646363204 0.5362028732 3.8983709596
H -2.0333385356 1.9310716338 2.8543516092
H -3.3349396728 0.810097357 2.4401899704
H -4.5180476296 -0.3368352875 -1.6204687943
H -4.3634390427 -1.9075257404 -0.7919555765
H -5.9839660548 0.4865301184 0.2267121394
H -6.660211483 -0.9809528713 -0.4954068473
H -5.8174982975 -1.0657578046 1.060160024
*
