! pbe def2-sv(p) def2/J RI DEFGRID1 loosescf d4 GCP(DFT/SV(P)) printgap
%output
    printlevel normal
end
* xyz 0 1
C 0.8462424027 1.2965944342 -0.9892573296
C 1.4335393025 0.306945443 0.0230866607
H 2.4446987619 0.0444523335 -0.3039315054
C 0.6050701196 -0.9957825828 0.0450639078
H 0.5389005242 -1.3459305329 1.084812337
C -0.8309357217 -0.7569329755 -0.4565134982
H -0.8259988832 -0.8143845873 -1.5562384036
C -1.2871446799 0.6613606182 -0.0798040289
H -2.3182661462 0.8274217119 -0.4269066118
O -0.520043375 1.6330061081 -0.7396395202
O -1.2195742405 0.8113161865 1.3111100715
O -1.6461810236 -1.7568969172 0.093385638
O 1.266895274 -1.9427560494 -0.7570889596
O 1.5783756558 0.8705377417 1.2994074383
H 0.9341050909 0.8677552956 -1.9938142479
H 1.3901893378 2.241497308 -0.9456603231
H -1.6653935885 1.6306658563 1.5765886386
H -2.5572937083 -1.6644121074 -0.2199887002
H 0.8155522641 -2.7957984 -0.6776072347
H 0.686335465 1.0132997725 1.6679774641
*
