! pbe def2-sv(p) def2/J RI DEFGRID1 loosescf d4 GCP(DFT/SV(P)) printgap
%output
    printlevel normal
end
* xyz 0 1
C 4.6332138133 -1.5702921583 -0.4952952982
C 4.5927571391 -0.0742897341 -0.2604016828
O 3.4170798455 0.3268514043 0.4634078791
P 1.9656183224 0.312457194 -0.1900788987
S 1.9538743832 0.7940843512 -2.0972314088
O 1.1619908749 1.1746910232 0.8685429903
C 1.5503908995 2.4754502295 1.3547262109
C 1.7307414692 3.4846215007 0.2402912466
S 1.2015653074 -1.5955760313 0.2527596781
C -0.031960546 -1.7839552885 -1.0769021524
S -1.7242172446 -1.9334844171 -0.4625401178
P -2.0273008653 0.0671375151 0.1918789949
S -1.3993593732 1.4794277111 -1.0063764687
O -1.4147167447 0.1739756934 1.6420391194
C -1.877437245 -0.616050992 2.7724400512
C -0.8787433659 -1.702467877 3.1167676172
O -3.5882126253 0.0985175223 0.5046513374
C -4.5779533991 0.4226361175 -0.4875727901
C -4.6739236309 -0.6270575178 -1.5755757505
H 4.4886688807 -2.1040471708 0.4404050635
H 3.8458191998 -1.8582035105 -1.1899605561
H 5.5941789286 -1.8393855562 -0.9216066039
H 4.6122984215 0.4645232276 -1.2133449211
H 5.4161655835 0.2579619431 0.3733542377
H 0.723908503 2.7535845935 2.011651677
H 2.4695667075 2.3596475125 1.9341637422
H 1.9202161667 4.4652436303 0.6651521552
H 2.5700365576 3.2010654437 -0.3940332358
H 0.8339028768 3.5257266855 -0.3761376193
H 0.1770274673 -2.7138389721 -1.5992525184
H 0.0497602788 -0.9265008528 -1.7509821735
H -1.9712826462 0.1067066642 3.5846157806
H -2.8579043361 -1.0330749165 2.5371633249
H 0.1102968123 -1.2726372188 3.2524285158
H -1.1895991952 -2.1839698928 4.0385336775
H -0.8255498036 -2.4478876556 2.3270625455
H -5.502809936 0.4936039149 0.0867899722
H -4.3291151487 1.3987174133 -0.9154747798
H -4.7922062918 -1.6159595074 -1.1400382768
H -5.5270513378 -0.4060606666 -2.2089193866
H -3.7721420512 -0.6166090192 -2.1855859075
*
