! r2scan-3c def2/J RI DEFGRID2 scfconv6 printgap
%output
    printlevel normal
end
%cpcm
    smd true
    smdsolvent "water"
end
* xyz 0 1
C 4.5611826093 -1.574509372 -0.5531933016
C 4.5769484094 -0.1026530705 -0.1937658797
O 3.3924679852 0.2993143461 0.5146098587
P 1.9573537271 0.352836717 -0.1710634954
S 1.9744203497 0.9580146976 -2.0401486915
O 1.152558189 1.2233145701 0.8787887356
C 1.1009368071 2.6601668519 0.8195721286
C 2.446233644 3.2929948508 1.1035061156
S 1.1784624899 -1.5573216345 0.2298297923
C -0.0056877058 -1.742437647 -1.1477965519
S -1.7028529843 -1.9982261339 -0.5865387761
P -2.0844965003 -0.025494315 0.1056112184
S -1.5264875388 1.4259166395 -1.0815776574
O -1.4203950473 0.0673619355 1.5320449932
C -1.7621529114 -0.8425928559 2.6125034113
C -0.5814351605 -0.9139304356 3.5576860691
O -3.6310364082 -0.0538820433 0.4742457001
C -4.6725708546 0.2232964411 -0.4797359609
C -4.7527245287 -0.8255365212 -1.5695660457
H 4.3546582648 -2.1770129289 0.3276578095
H 3.7918581468 -1.7662455984 -1.2998499895
H 5.5263648496 -1.8525037999 -0.9642073565
H 4.663274894 0.5104299233 -1.0967668394
H 5.3869083269 0.1350052583 0.4971561355
H 0.7296425889 2.9531246165 -0.1687502608
H 0.3565596458 2.9225606273 1.5733659331
H 2.8478404968 2.9144653406 2.0398498607
H 3.1428166344 3.06041886 0.2990085804
H 2.3273697976 4.3702223824 1.1661629584
H 0.2633021523 -2.6364421844 -1.7041360517
H 0.0497732673 -0.8519576424 -1.7801144679
H -2.6513370728 -0.4429244902 3.1031889279
H -1.9931681318 -1.8232037947 2.185873715
H 0.288861951 -1.3143777899 3.043588023
H -0.3400592883 0.0780389764 3.928868867
H -0.8342572818 -1.56052446 4.391718839
H -5.5781276674 0.2431006886 0.1283311932
H -4.4905283721 1.2129050612 -0.9098859433
H -3.8732754404 -0.7682218643 -2.2089860123
H -4.8070877332 -1.820508672 -1.1351378717
H -5.6365145513 -0.6455241794 -2.1731718125
*
