! pbe def2-sv(p) def2/J RI DEFGRID1 loosescf d4 GCP(DFT/SV(P)) printgap
%output
    printlevel normal
end
* xyz 0 1
C 2.9865433568 0.7062274996 -2.3502424624
C 2.1101140875 -0.5272271595 -2.3076181035
O 1.2752347607 -0.5696054679 -1.1309295138
P 1.8003214791 -0.5125367462 0.3567371833
S 2.4303593754 1.1721369205 1.1536027961
O 2.904449842 -1.6572941035 0.3280989603
C 3.7977835955 -1.8936444455 1.4337297562
C 5.0645454084 -2.5246981164 0.8914523049
S 0.2035867658 -1.4083382041 1.3963951705
C -0.6067925411 0.0593476246 2.1101443488
S -2.3065224292 0.2618485343 1.5420546028
P -1.8946048287 0.7743605286 -0.4836928386
S -0.467275736 2.0791706357 -0.7800313497
O -3.3408181311 1.1254654674 -1.0428708362
C -4.2878768257 2.0139713945 -0.4193940468
C -3.7121752591 3.3860506276 -0.139844007
O -1.587904713 -0.5623689152 -1.2585096726
C -2.4954323525 -1.6969235967 -1.2658043978
C -1.6859633708 -2.9427199827 -1.5589199918
H 2.3758748574 1.6018889488 -2.2458131496
H 3.7062624407 0.6854673016 -1.5324467154
H 3.5199983878 0.741956333 -3.294795397
H 2.7099481986 -1.4398791418 -2.3303011336
H 1.3876088862 -0.5295133348 -3.1259676434
H 4.0036018646 -0.9369642432 1.9260684735
H 3.2902298263 -2.5582405475 2.1370123397
H 4.8259997164 -3.4472308279 0.370144755
H 5.5578168447 -1.84571064 0.2013071103
H 5.7337096842 -2.7409055839 1.7176408917
H -0.0144074168 0.9427210756 1.8528725191
H -0.6630420929 -0.0751927688 3.1872636091
H -5.1042194572 2.0634345875 -1.1421058768
H -4.6353050394 1.5445774135 0.5049333376
H -3.3106074203 3.822972576 -1.0512222264
H -4.4904595335 4.0301059159 0.2564460013
H -2.905343828 3.3147140478 0.5884212793
H -2.9858421779 -1.7615357659 -0.2897616856
H -3.2446977435 -1.5097269628 -2.0370314164
H -2.3527518963 -3.7981373759 -1.5940070851
H -1.1770443037 -2.8412712738 -2.5131663411
H -0.9427809541 -3.0988990904 -0.7808098162
*
