! pbe def2-sv(p) def2/J RI DEFGRID1 loosescf d4 GCP(DFT/SV(P)) printgap
%output
    printlevel normal
end
* xyz 0 1
C 3.6543878315 2.4789963799 1.7672107157
C 2.2242919833 1.9818156599 1.7817410082
O 1.9115477504 1.2759385117 0.5673453314
P 2.4672131604 -0.1769766731 0.2666213153
S 2.8354465285 -1.243558332 1.8768106534
O 3.6886759961 0.1646854913 -0.6878417972
C 4.2828105815 -0.7299264523 -1.6461603212
C 4.6609739973 -2.0691498331 -1.0478953154
S 0.996644856 -0.9396219792 -1.0493303787
C -0.1080864135 -1.5628800108 0.2432460504
S -0.9620667269 -0.2405440923 1.1518647794
P -2.6119739276 0.0251129486 -0.1502378371
S -2.6032794789 -0.9116756596 -1.8762323157
O -2.840021385 1.5971163845 -0.2411660267
C -2.279312542 2.4041707661 -1.2892157888
C -0.7958451844 2.6392335961 -1.0908007877
O -3.7484030108 -0.4109097234 0.8625658085
C -5.0754532159 -0.7721114906 0.4260333444
C -5.8380909544 0.4146504814 -0.1248479615
H 3.8489847728 3.0548617215 2.6663827102
H 4.3341352184 1.628027939 1.734052221
H 3.8271495274 3.0984738131 0.891456232
H 1.5062062751 2.8020233516 1.8085083644
H 2.0516301581 1.3130778824 2.6315382586
H 3.5770437747 -0.8603008212 -2.4713823494
H 5.1626404233 -0.1852811329 -1.9935943068
H 3.7670099486 -2.6052477733 -0.7314529254
H 5.1827617831 -2.6621482931 -1.7921384974
H 5.3041326099 -1.9310706639 -0.1818826168
H 0.480083348 -2.1146432443 0.9769491593
H -0.8357191232 -2.2025544971 -0.2524198576
H -2.4668100115 1.9099341624 -2.2484339828
H -2.8425055175 3.3370406937 -1.2348916334
H -0.2443884914 1.7074338346 -1.2098370689
H -0.4399875189 3.3498083455 -1.829792522
H -0.6070086701 3.0297532017 -0.094015197
H -4.9873529622 -1.5589819315 -0.3299316619
H -5.543730606 -1.1720952214 1.3263273128
H -5.3798196565 0.7529200705 -1.0530230896
H -6.8637462466 0.1205471813 -0.3248190624
H -5.8279737878 1.2320567712 0.5913323728
*
