! pbe def2-sv(p) def2/J RI DEFGRID1 loosescf d4 GCP(DFT/SV(P)) printgap
%output
    printlevel normal
end
* xyz 0 1
C 3.7285617629 -1.7751757426 -2.35791844
C 4.2013006817 -1.1136340507 -1.0786296982
O 3.1287102874 -0.9140773783 -0.1468515013
P 1.977797835 0.1692802003 -0.3854461799
S 2.6004753872 1.8212774239 -1.2300295414
O 1.3709562828 0.2337309261 1.0770151112
C 1.7589084311 1.2501685422 2.0215453301
C 3.213257631 1.1249461051 2.4196425883
S 0.4599584918 -0.9159026649 -1.3834576421
C -0.004637002 -2.0431522394 -0.0444134617
S -1.2097242662 -1.3528609978 1.1488828516
P -2.0309650814 0.3142549545 0.106946627
S -0.9859377726 1.9692069347 -0.0768129046
O -3.3834435536 0.5264051168 0.9197358504
C -3.4721462469 1.3741304149 2.0776249307
C -2.704962504 0.8098921049 3.2553247342
O -2.5534884397 -0.1968966517 -1.2900112434
C -3.7059279652 -1.0521195002 -1.5097430966
C -3.3323802159 -2.5202780257 -1.4673824026
H 3.2162880522 -2.7082083842 -2.138769684
H 3.0420160894 -1.1122117442 -2.8846316784
H 4.5835381946 -1.9736601019 -2.9960994877
H 4.6537063959 -0.1407934051 -1.2968311184
H 4.9095296772 -1.7417004249 -0.5365078462
H 1.5500343528 2.2294435888 1.5782832863
H 1.0903712845 1.0831533583 2.8680693795
H 3.4161577231 0.1235072124 2.7899524656
H 3.8489564093 1.3212842783 1.5568228992
H 3.435422757 1.852228233 3.194046871
H 0.8812954439 -2.3194163103 0.52388222
H -0.4545371821 -2.9100598963 -0.522467162
H -3.0931954028 2.3655044718 1.8089945361
H -4.5428411229 1.4272824451 2.2795700933
H -3.0165729517 -0.21160205 3.4575844775
H -1.6385007868 0.8140750656 3.0331952916
H -2.8850851591 1.4258640741 4.1303622053
H -4.4692808907 -0.8102516852 -0.7689226516
H -4.047067248 -0.7594390434 -2.5041061126
H -3.0668220788 -2.8212071643 -0.4571197672
H -4.1859593827 -3.1059551513 -1.794548653
H -2.4958417589 -2.7074721648 -2.1362601023
*
