! pbe def2-sv(p) def2/J RI DEFGRID1 loosescf d4 GCP(DFT/SV(P)) printgap
%output
    printlevel normal
end
* xyz 0 1
C 5.49781752 -1.6770057128 -0.9792969237
C 4.4010200691 -0.9262928947 -1.7055763849
O 3.9934537917 0.2477542195 -0.9560637288
P 2.7684049017 0.2662111631 0.0283988783
S 2.5012573112 2.0397801632 0.8080115754
O 3.1395874084 -0.8901886667 1.0570771032
C 2.2255230765 -1.3255681913 2.0842270967
C 1.7693290376 -2.741898787 1.7901608122
S 1.1247027937 -0.5118080535 -1.1070361565
C -0.0759955891 0.7931174098 -0.7752786469
S -0.9920919569 0.5355906874 0.7756487674
P -2.9493738749 0.1816817749 -0.0037624104
S -3.1459181042 0.2960111056 -1.9568253576
O -3.8899092447 1.1311895641 0.8467029678
C -4.2038113965 2.4719447088 0.4336390217
C -2.9909596351 3.3819388027 0.4380649716
O -3.4408871022 -1.1625237336 0.6681903408
C -3.2086733318 -2.4518011275 0.0705216978
C -1.7476101258 -2.8511216016 0.1211635345
H 5.8174592807 -2.5155450182 -1.5900693138
H 6.3439582253 -1.0188417981 -0.8017756313
H 5.1354057381 -2.0443373279 -0.0232976175
H 3.5256343295 -1.5598288237 -1.8730803875
H 4.7544193606 -0.5278457086 -2.6581635818
H 2.7858230116 -1.2722867127 3.0197085984
H 1.3781630891 -0.6337127539 2.1376006439
H 2.6273645475 -3.4060746174 1.7430120503
H 1.1055136172 -3.0729181905 2.5821772325
H 1.2427671583 -2.7797596553 0.8398791541
H -0.7846856851 0.7971759066 -1.6069882917
H 0.4559261081 1.740706379 -0.690081034
H -4.6493527651 2.432604553 -0.5657558501
H -4.9511859361 2.7986823439 1.158020095
H -2.481772232 3.3331538278 1.3977203483
H -2.2948015688 3.0842699585 -0.3457879662
H -3.3080688153 4.4032046793 0.2520289657
H -3.8293520338 -3.1260952047 0.6624569355
H -3.5697694938 -2.4278572039 -0.9628148307
H -1.3701552008 -2.7482445201 1.1353672684
H -1.6465606631 -3.8833138413 -0.1985531904
H -1.1596675629 -2.2195613077 -0.5449579964
*
