! pbe def2-sv(p) def2/J RI DEFGRID1 loosescf d4 GCP(DFT/SV(P)) printgap
%output
    printlevel normal
end
* xyz 0 1
C 3.2954379943 2.4659622329 0.4048279873
C 2.1053793165 2.0365901121 1.2346598153
O 2.213690818 0.6764713886 1.7167144935
P 2.4272699071 -0.6181413679 0.84192003
S 1.9847740859 -2.2319016361 1.857330282
O 3.9493406464 -0.5026844256 0.3997262489
C 4.7118521026 -1.636492557 -0.047016396
C 4.2104579295 -2.1840038184 -1.3679881766
S 1.3149203052 -0.3097576934 -0.9526400432
C -0.2273060244 -1.0434935053 -0.3658497753
S -1.139690843 0.0401956776 0.7719259139
P -2.7418358062 0.6459691946 -0.5155658685
S -2.7720846129 -0.174046831 -2.3019856321
O -2.774941281 2.2236445916 -0.4203582706
C -1.6330271393 3.0910453132 -0.537239288
C -0.8310299234 2.8439114976 -1.7994619665
O -4.0706714599 0.4250451158 0.3176558605
C -4.8351723235 -0.7872546525 0.2236180672
C -4.1249072774 -1.9584975991 0.8739343698
H 4.2174601706 2.2997957016 0.9554151298
H 3.3320346848 1.8979304889 -0.5225823136
H 3.2014632388 3.5219750392 0.1709889109
H 1.1809608951 2.1180587192 0.6567278881
H 2.01835706 2.618601079 2.1532520287
H 5.7279002251 -1.2485992666 -0.1318201593
H 4.6717187788 -2.4081891322 0.7282937636
H 4.8962596219 -2.9467033367 -1.7226694993
H 3.2263866352 -2.6316290697 -1.2371865257
H 4.140454582 -1.3899072757 -2.1070105845
H 0.0073354667 -1.9616206363 0.1738611024
H -0.8456938704 -1.2355123401 -1.2466077959
H -2.0709006478 4.090889845 -0.5345650108
H -1.0144569284 2.9618450363 0.3561215259
H -0.0462560249 3.5892624457 -1.8812484024
H -0.3762510566 1.8531276412 -1.7809777724
H -1.4762147764 2.9057172397 -2.672692768
H -5.768756692 -0.5499549686 0.7353867638
H -5.0342064668 -0.9964734062 -0.8328096694
H -4.7899742203 -2.8157837025 0.8974960068
H -3.2353088932 -2.2208169903 0.3020552019
H -3.8286734401 -1.7047259824 1.8889152532
*
