  17
        -23.96466153
 C         -3.1053659348       -0.4123930510        0.2437135918
 C         -1.6762574097        0.0094255919        0.5629492924
 C         -0.9726323202        0.5860594068       -0.6641866753
 C          0.4499628323        1.0422101571       -0.3465326590
 C          1.3805892793       -0.1090779494       -0.0762510587
 O          1.2581946778       -1.2324361505       -0.5151177174
 O          2.3988911203        0.2427277513        0.6971271870
 H         -3.5886767117       -0.8220443833        1.1269435900
 H         -3.6848909651        0.4399508029       -0.1031217778
 H         -3.1111006306       -1.1717489922       -0.5347514503
 H         -1.1139524177       -0.8555810034        0.9224875590
 H         -1.6877547752        0.7569177641        1.3594043284
 H         -0.9315242467       -0.1756868364       -1.4452850117
 H         -1.5429672402        1.4353952517       -1.0421331738
 H          0.4740234847        1.7117120692        0.5136532126
 H          0.8675940811        1.5801219703       -1.2013039744
 H          3.0248996441       -0.4902934807        0.8552736579
  17
        -23.96458281
 C         -3.4504801583       -0.1885289043       -0.0317216693
 C         -2.1904471997        0.5820679642        0.3433850291
 C         -0.9280681844       -0.1721095098       -0.0661154604
 C          0.3361874676        0.5946143167        0.3085759319
 C          1.5911390540       -0.1261170286       -0.0980657573
 O          1.6362659604       -1.1935456169       -0.6704622573
 O          2.6844437722        0.5442485533        0.2419529789
 H         -3.4901437441       -0.3531241341       -1.1059905116
 H         -3.4650579657       -1.1574685284        0.4618880393
 H         -4.3386401635        0.3631486096        0.2655110729
 H         -2.1765601971        0.7505830805        1.4220073553
 H         -2.2032014186        1.5575662603       -0.1467775466
 H         -0.9085909143       -1.1512587385        0.4167133983
 H         -0.9337548052       -0.3461815773       -1.1440401866
 H          0.3861814375        0.7615007160        1.3865868485
 H          0.3515965611        1.5765218954       -0.1692538188
 H          3.5053498123        0.0838916842       -0.0192690958
  17
        -23.96443975
 C         -3.0339619544       -0.3386321432       -0.2491744237
 C         -1.6483144082       -0.2494218161        0.3790971244
 C         -0.8662353403        0.9484934567       -0.1556820137
 C          0.5291879654        1.0508107948        0.4725110116
 C          1.3881395867       -0.1212848168        0.0828043233
 O          1.8556125748       -0.9282739800        0.8597281483
 O          1.5962437805       -0.1914181436       -1.2220456963
 H         -2.9563425493       -0.4463623214       -1.3284580817
 H         -3.5762506221       -1.1945146724        0.1441111840
 H         -3.6061923725        0.5605352955       -0.0339275094
 H         -1.0932808849       -1.1686557586        0.1744808370
 H         -1.7440628666       -0.1628476661        1.4636350514
 H         -0.7634005665        0.8654608843       -1.2388899956
 H         -1.4154977474        1.8646135066        0.0652561208
 H          0.4612472574        1.0818692897        1.5597471920
 H          1.0203305409        1.9551932633        0.1111872378
 H          2.1509994339       -0.9536380488       -1.4763582297
  17
        -23.96420984
 C         -3.3567215615        0.4213485645       -0.2220370045
 C         -2.1642444623        0.0620718125        0.6565240103
 C         -0.8588451518        0.0962735255       -0.1344273356
 C          0.3440809125       -0.2650852089        0.7500037011
 C          1.5947130495       -0.2275861862       -0.0819265706
 O          2.1127384101       -1.1942728749       -0.6012255426
 O          2.0704578544        0.9983773205       -0.2285740482
 H         -3.2399519174        1.4211919554       -0.6333170597
 H         -3.4465305939       -0.2802533408       -1.0481378478
 H         -4.2768567527        0.3919496274        0.3555821751
 H         -2.3074810649       -0.9364116464        1.0736850771
 H         -2.1000990159        0.7659487699        1.4882056917
 H         -0.9157858846       -0.6104629878       -0.9654984949
 H         -0.7089588233        1.0950405569       -0.5492192604
 H          0.2191737764       -1.2682959193        1.1560336912
 H          0.4334298639        0.4605067864        1.5577662386
 H          2.8619883197        1.0333965734       -0.8000129420
  17
        -23.96419388
 C         -1.8218513063       -0.9759920483       -0.4562468483
 C         -2.0773158639        0.4690403106       -0.0454562305
 C         -0.9249020543        1.0792155312        0.7522205158
 C          0.3850208431        1.1341676384       -0.0381547203
 C          1.1549084439       -0.1570898564        0.0250032417
 O          1.2443563856       -0.8695429690        1.0020554496
 O          1.7810590009       -0.4316028694       -1.1121656003
 H         -1.0072823081       -1.0376454009       -1.1742216706
 H         -1.5579615637       -1.5778587010        0.4112457889
 H         -2.7100644213       -1.4022649214       -0.9160977717
 H         -2.9781955793        0.5098441778        0.5698752906
 H         -2.2572702878        1.0718669298       -0.9381851313
 H         -1.2036550557        2.0907843953        1.0488314424
 H         -0.7545403262        0.4935715518        1.6584156268
 H          1.0407011185        1.8904722978        0.4002788668
 H          0.2156862983        1.3941948143       -1.0826464696
 H          2.3237775382       -1.2418637795       -1.0582640847
  17
        -23.96415108
 C         -1.8704884540       -0.9826127838       -0.1230816153
 C         -2.0211816018        0.4949044073        0.2170501223
 C         -0.8248977740        1.3405044911       -0.2184218480
 C          0.4581333696        1.0153902319        0.5548180679
 C          1.1573770221       -0.2351858900        0.0975232980
 O          1.6158470659       -1.0762307220        0.8461607084
 O          1.2839358842       -0.3173144254       -1.2166716136
 H         -1.7024507438       -1.1116875033       -1.1899497883
 H         -1.0344090530       -1.4232052917        0.4161008841
 H         -2.7702885501       -1.5276151115        0.1518933449
 H         -2.1669435081        0.6046304324        1.2938569621
 H         -2.9133704675        0.8818011021       -0.2794683039
 H         -0.6438824687        1.2026740410       -1.2850460790
 H         -1.0646418214        2.3908768781       -0.0480088323
 H          0.2601117518        0.9254305660        1.6232613750
 H          1.1754851358        1.8257246334        0.4038215031
 H          1.7841059236       -1.1077330821       -1.4957386622
  17
        -23.96407509
 C         -3.4005310960        0.1516131558       -0.2677806167
 C         -2.1719454391        0.2501284022        0.6286623253
 C         -0.8854370420        0.0191242405       -0.1598859390
 C          0.3543516283        0.1328614060        0.7369815107
 C          1.5904482042       -0.1855349968       -0.0579728611
 O          1.8485774833       -1.2741146305       -0.5276734785
 O          2.3791307801        0.8641129683       -0.2213632263
 H         -3.4585865313       -0.8323278969       -0.7273991332
 H         -4.3066483093        0.3161765060        0.3093273812
 H         -3.3562044337        0.8963269958       -1.0590657012
 H         -2.2440417633       -0.4914356965        1.4264057637
 H         -2.1380632442        1.2378871733        1.0920046527
 H         -0.9011991945       -0.9746355738       -0.6127985326
 H         -0.8158313813        0.7532207210       -0.9654954475
 H          0.2737693925       -0.5898929768        1.5500846617
 H          0.4438610736        1.1389953834        1.1440439754
 H          3.1744530705        0.6663560535       -0.7537890624
  17
        -23.96397082
 C         -2.9165179061        0.0878113845        0.9288758304
 C         -2.3163803379        0.4125983056       -0.4347825971
 C         -0.9386680669       -0.2131585626       -0.6477684989
 C          0.1234218362        0.3625471460        0.2844428578
 C          1.5054997031       -0.1226599229       -0.0520936673
 O          1.7934494717       -0.8416840225       -0.9846256103
 O          2.4153007338        0.3329436333        0.7998714471
 H         -2.9481031490       -0.9883987552        1.0824487445
 H         -2.3351673662        0.5354233822        1.7300920600
 H         -3.9313534244        0.4724607809        0.9926648873
 H         -2.2435952484        1.4956265233       -0.5521229727
 H         -2.9850860120        0.0402912594       -1.2131788858
 H         -0.9974968378       -1.2933122667       -0.5002901849
 H         -0.6200098497       -0.0466479800       -1.6790253356
 H         -0.0710808737        0.0979247741        1.3245640320
 H          0.1383295213        1.4532777849        0.2239850003
 H          3.3179290654        0.0272648592        0.5861034989
  17
        -23.96396584
 C         -3.3033347073        0.4341077156        0.7776305762
 C         -2.2610581537        0.0251414113       -0.2564346916
 C         -0.8431855578        0.1462160797        0.2978949204
 C          0.1970739691       -0.2658553001       -0.7392623325
 C          1.6211490501       -0.1717527756       -0.2635657575
 O          2.5801044709       -0.4519406743       -0.9565547721
 O          1.7507677811        0.2436615121        0.9832735040
 H         -3.2344454664       -0.1993489251        1.6588090394
 H         -3.1498783267        1.4657122752        1.0854721110
 H         -4.3054179657        0.3433764435        0.3663111742
 H         -2.3596338170        0.6584785493       -1.1404710724
 H         -2.4423145218       -1.0064058209       -0.5652678122
 H         -0.6593338468        1.1766508946        0.6063483157
 H         -0.7427807336       -0.4845128921        1.1826581466
 H          0.1171369602        0.3547564503       -1.6351795383
 H          0.0347870123       -1.2978778607       -1.0601161211
 H          2.6843255859        0.2950639593        1.2668736485
  17
        -23.96396166
 C         -2.3698418259       -0.8747466461       -0.0037462966
 C         -1.6748106765        0.2889305480        0.6952661974
 C         -0.9092687016        1.2035735326       -0.2625501366
 C          0.2215430392        0.4875714325       -1.0093690523
 C          1.2404355730       -0.0674994616       -0.0514666447
 O          1.8054363075        0.5713199959        0.8114520024
 O          1.4719843116       -1.3571985012       -0.2457213723
 H         -3.0005716994       -0.5096232692       -0.8107507569
 H         -1.6460687823       -1.5738448692       -0.4141833992
 H         -2.9947521753       -1.4147297609        0.7031998215
 H         -0.9859093405       -0.0962453024        1.4514794785
 H         -2.4237048810        0.8915930608        1.2135094004
 H         -1.5999540942        1.6206809722       -0.9963515571
 H         -0.4765378480        2.0263182186        0.3101311911
 H          0.7333799284        1.2091891019       -1.6487785541
 H         -0.1588618894       -0.3245569508       -1.6256914938
 H          2.1402007610       -1.7214138336        0.3668862888
  17
        -23.96395690
 C         -2.3054765735        0.2179141110        1.1120168436
 C         -1.7734885724       -0.5003699820       -0.1236585142
 C         -0.9955749330        0.4150024439       -1.0707286288
 C          0.2744188322        0.9953113879       -0.4415200944
 C          1.2485393739       -0.0883346874       -0.0663516776
 O          1.5866098721       -1.0029726388       -0.7879930046
 O          1.7238665488        0.0591015462        1.1614760868
 H         -1.4938282539        0.5424657845        1.7577254638
 H         -2.8901199028        1.0875739120        0.8216636988
 H         -2.9441312489       -0.4494213064        1.6852927493
 H         -2.6136990740       -0.9257437782       -0.6765150357
 H         -1.1305635051       -1.3298540401        0.1816723493
 H         -0.7093193934       -0.1579165303       -1.9549938185
 H         -1.6365001027        1.2389074035       -1.3866061672
 H          0.0509159261        1.5867008491        0.4443053197
 H          0.7716273779        1.6351968810       -1.1734915637
 H          2.3688232829       -0.6327537793        1.4061085234
  17
        -23.96382540
 C         -2.4585273006       -0.6268940303        0.3614000631
 C         -1.6717742860        0.1094549728       -0.7174591801
 C         -0.8010703235        1.2387446808       -0.1645072881
 C          0.2783712831        0.7548030090        0.8137488503
 C          1.2020987481       -0.2354722818        0.1595764840
 O          1.3222337808       -1.3968536647        0.4912846702
 O          1.8940942101        0.2923988278       -0.8376225822
 H         -1.7926684282       -1.1970642886        1.0045236231
 H         -3.0197280011        0.0766554116        0.9717624608
 H         -3.1589675084       -1.3222433313       -0.0944781001
 H         -2.3705155459        0.5402456606       -1.4376268692
 H         -1.0447143911       -0.6071774559       -1.2536990780
 H         -0.3128624876        1.7497389938       -0.9959804113
 H         -1.4342554022        1.9589005753        0.3554077648
 H         -0.1689688699        0.2866691028        1.6887252098
 H          0.8766410185        1.6109393960        1.1278247755
 H          2.4939673957       -0.3490387904       -1.2641562795
  17
        -23.96360668
 C         -2.8186728959        0.9611833123        0.5141994715
 C         -2.3288042161       -0.3670575157       -0.0510811748
 C         -0.8503834139       -0.6324116144        0.2312865183
 C          0.0742953797        0.3599789266       -0.4914202827
 C          1.5013615736       -0.0404270324       -0.2484416574
 O          2.1844359468       -0.6822455474       -1.0195528192
 O          1.9451369277        0.3541009392        0.9343052286
 H         -2.3432875207        1.7996354458        0.0129046153
 H         -3.8931811659        1.0518039593        0.3768396084
 H         -2.6022507000        1.0243346249        1.5779923420
 H         -2.5006886399       -0.3914210241       -1.1287616936
 H         -2.9083110913       -1.1775703454        0.3952761943
 H         -0.6657617574       -0.5707084532        1.3054330073
 H         -0.6007304991       -1.6437248931       -0.0985563521
 H         -0.0785827782        1.3627968904       -0.0965036133
 H         -0.1216733132        0.3382749398       -1.5629206710
 H          2.8604133547        0.0637373047        1.1132224786
  17
        -23.96351014
 C         -3.0206255047       -0.0070810655       -0.4384981640
 C         -2.1766515568        0.5303802165        0.7114265964
 C         -0.7657945410       -0.0564468511        0.7506898034
 C          0.0875270099        0.3794934262       -0.4510082463
 C          1.4726998712       -0.1787532891       -0.2899851507
 O          1.8598977205       -1.2244309540       -0.7689897486
 O          2.2419603751        0.5803667260        0.4741378955
 H         -2.6196624398        0.3041158695       -1.3991383495
 H         -3.0501865618       -1.0940203326       -0.4124916747
 H         -4.0388960260        0.3655478873       -0.3612325821
 H         -2.6694603959        0.2868520811        1.6546880724
 H         -2.1131937266        1.6175967050        0.6403613998
 H         -0.2694030038        0.2725892424        1.6660166149
 H         -0.8224214472       -1.1470622820        0.7689539030
 H          0.1441078487        1.4670506587       -0.4813653673
 H         -0.3377856439       -0.0068464358       -1.3754285512
 H          3.1320949022        0.2024457284        0.6121137641
  17
        -23.96347398
 C         -2.8546435387        0.7149412777        0.7855945884
 C         -2.3420232898       -0.1581301821       -0.3544027485
 C         -0.9049281402       -0.6337260855       -0.1457308219
 C          0.1092816550        0.5177617606       -0.1598844431
 C          1.5082444376       -0.0335939964       -0.1538549402
 O          1.9789687920       -0.7359866860       -1.0242107643
 O          2.1911696305        0.3132656761        0.9251480222
 H         -2.3116968239        1.6545714657        0.8332653932
 H         -3.9080415459        0.9399721877        0.6395215948
 H         -2.7429922132        0.2009050897        1.7373582103
 H         -2.4077895370        0.3928022065       -1.2944981735
 H         -2.9810182666       -1.0391607580       -0.4415859984
 H         -0.8322898674       -1.1639800464        0.8061594366
 H         -0.6363856270       -1.3329970422       -0.9408949794
 H         -0.0136419965        1.1639133494        0.7069444481
 H         -0.0232830309        1.0957548908       -1.0760415761
 H          3.0963874392       -0.0546829666        0.9392823896
  17
        -23.96333792
 C         -2.9424278962       -0.3067449931        0.6856244727
 C         -2.2516224417        0.7195248285       -0.2055674957
 C         -0.7486892989        0.8259540065        0.0517463296
 C          0.0015237767       -0.4466145886       -0.3450936226
 C          1.4928985049       -0.3282917933       -0.1983935552
 O          2.2935215883       -0.8966638599       -0.9144287296
 O          1.8699031264        0.4433166597        0.8068255224
 H         -2.6038712645       -1.3142195043        0.4595859219
 H         -2.7386514131       -0.0986608588        1.7333342805
 H         -4.0181379762       -0.2718236642        0.5325428337
 H         -2.6982220686        1.6993975387       -0.0266460514
 H         -2.4219978463        0.4649993805       -1.2535873361
 H         -0.3493214268        1.6635246071       -0.5237270440
 H         -0.5717388290        1.0336287625        1.1076968823
 H         -0.2137210032       -0.7277801181       -1.3769841785
 H         -0.3057248108       -1.2745375508        0.2982669793
 H          2.8411627785        0.4945373576        0.8968455529
  17
        -23.96077963
 C         -2.3508521404       -0.8632701290       -0.4144407690
 C         -1.7731435422        0.1698396500        0.5470626726
 C         -0.8672635128        1.1892536912       -0.1648335261
 C          0.5748900814        1.1798997305        0.3685795868
 C          1.2252421904       -0.1465310457        0.0897418721
 O          1.3399381964       -1.0480003809        0.8939863447
 O          1.6589948482       -0.2474153545       -1.1568689823
 H         -2.9413310869       -0.3786969180       -1.1885253322
 H         -1.5520789029       -1.4282856002       -0.8899141247
 H         -2.9897653814       -1.5629197848        0.1189530418
 H         -1.2016253302       -0.3516197327        1.3177997478
 H         -2.5944278097        0.6867946443        1.0451406149
 H         -0.8418144344        0.9780713667       -1.2349870185
 H         -1.2605246234        2.1972239861       -0.0354325270
 H          0.5761800656        1.3529225429        1.4442242990
 H          1.1494381731        1.9553674985       -0.1373408828
 H          2.0791025464       -1.1085954348       -1.3448099428
  17
        -23.95685269
 C         -3.4419777503       -0.2201920768       -0.0533633568
 C         -2.1938761405        0.5638981448        0.3327507319
 C         -0.9205258136       -0.1735297581       -0.0746747397
 C          0.3356328496        0.6065809688        0.3066047259
 C          1.5968819893       -0.1193592651       -0.0894738735
 O          1.6205574425       -1.1975359905       -0.6360099097
 O          2.7428611989        0.5006108073        0.1996319521
 H         -3.4458679157       -1.1929650944        0.4328884690
 H         -4.3388168954        0.3173635681        0.2438182301
 H         -3.4748238769       -0.3778196417       -1.1289187426
 H         -2.1892478431        0.7256653457        1.4125754590
 H         -2.2176245819        1.5415984558       -0.1527994358
 H         -0.8901395083       -1.1543274909        0.4040822540
 H         -0.9200462350       -0.3454024077       -1.1529026793
 H          0.3569877980        0.7692905430        1.3870063387
 H          0.3296448493        1.5825794210       -0.1847086606
 H          2.6269822182        1.3628864680        0.6389720254
  17
        -23.95675828
 C         -3.1149898526       -0.4713609597        0.1476891285
 C         -1.7108776907       -0.0315550889        0.5436895537
 C         -0.9682409912        0.6007792406       -0.6321768061
 C          0.4384661612        1.0566534314       -0.2463615525
 C          1.3884463120       -0.0987901388       -0.0415570454
 O          1.1591851663       -1.2416011453       -0.3617563096
 O          2.5638960474        0.2062206592        0.5132530225
 H         -3.0694267580       -1.2080054493       -0.6509964561
 H         -3.6286786604       -0.9166525159        0.9958490697
 H         -3.6967013705        0.3789073794       -0.2010959106
 H         -1.1454259882       -0.8966087865        0.8970446123
 H         -1.7759587467        0.6878369113        1.3634245522
 H         -0.8934011840       -0.1296994684       -1.4400104172
 H         -1.5350468301        1.4587454686       -0.9968006757
 H          0.3992276639        1.6564986634        0.6650152709
 H          0.8567691073        1.6736891630       -1.0459784333
 H          2.6649760553        1.1499723770        0.7342746876
  17
        -23.95618521
 C         -2.9127294125        0.9278316539       -0.0163143929
 C         -2.3188329694       -0.4111716682        0.4085238493
 C         -0.9282859364       -0.6642642068       -0.1733285359
 C          0.1246762818        0.3056110229        0.3596748442
 C          1.5118960986       -0.0572496442       -0.1064936951
 O          1.7705247380       -1.0057497636       -0.8105016672
 O          2.4952248259        0.7451636187        0.3077749655
 H         -2.3529731469        1.7592852219        0.4027786734
 H         -2.9086474309        1.0171025037       -1.1002284766
 H         -3.9405242792        1.0071349020        0.3289085779
 H         -2.9791824336       -1.2125697481        0.0723814718
 H         -2.2706520296       -0.4599268969        1.4982473662
 H         -0.6136987760       -1.6821032047        0.0668005994
 H         -0.9636703058       -0.5903081956       -1.2619634727
 H          0.1161852084        0.2945372192        1.4525558959
 H         -0.0925396502        1.3213669802        0.0239640118
 H          2.1944454946        1.4813158722        0.8713406233
  17
        -23.95607867
 C         -2.9770330611       -0.1890890306        0.6768567098
 C         -1.6500208351       -0.3673507254       -0.0514855431
 C         -0.8794140771        0.9486515814       -0.1423483268
 C          0.4500814704        0.7841144096       -0.8936732761
 C          1.3727720425       -0.1662338088       -0.1714539217
 O          1.6627617958       -1.2663690580       -0.5849832493
 O          1.8702467854        0.2556624820        0.9891884344
 H         -3.5135314268       -1.1329457091        0.7245444595
 H         -2.8120002891        0.1624557210        1.6926615126
 H         -3.6005763399        0.5353102638        0.1582800658
 H         -1.8338937659       -0.7489014218       -1.0578858058
 H         -1.0416783870       -1.1113738934        0.4697492258
 H         -1.4860279471        1.6841472961       -0.6726008335
 H         -0.7032660802        1.3263258455        0.8665297283
 H          0.9415472104        1.7529451600       -0.9953890053
 H          0.2634826724        0.3761520299       -1.8871826494
 H          1.6000884047        1.1627094546        1.2217963337
  17
        -23.95587470
 C         -2.5716397874        0.0723884981        0.9440702095
 C         -1.8235752470       -0.5250914542       -0.2434858414
 C         -0.9580543251        0.4920209003       -0.9899348879
 C          0.2418382799        0.9777729569       -0.1767750602
 C          1.2939344858       -0.0891333938        0.0023283082
 O          1.3152444389       -1.1418201331       -0.5917393842
 O          2.2678386263        0.1959597167        0.8709385209
 H         -3.1558840085        0.9339961830        0.6290828321
 H         -3.2496150074       -0.6655325670        1.3654513483
 H         -1.8893451004        0.3829458136        1.7308688707
 H         -2.5517732247       -0.9329307720       -0.9473038182
 H         -1.1939356980       -1.3529900963        0.0891836979
 H         -0.5868452879        0.0270443985       -1.9052847528
 H         -1.5713850544        1.3512273429       -1.2655976565
 H         -0.0817940373        1.3340807104        0.8018217369
 H          0.7194751379        1.8106191888       -0.6997323617
 H          2.1758184173        1.0677869700        1.2965099690
  17
        -23.95586810
 C         -3.3566947034        0.3940431849       -0.2510316877
 C         -2.1651749784        0.0727501469        0.6432521501
 C         -0.8581072071        0.0785575708       -0.1470453684
 C          0.3433677343       -0.2552452052        0.7518364202
 C          1.6034250623       -0.2175629185       -0.0737836962
 O          2.0902251573       -1.1957301524       -0.5949165629
 O          2.1620949250        0.9767798480       -0.2564599796
 H         -3.4419635657       -0.3386724292       -1.0501555145
 H         -4.2781045396        0.3824005515        0.3251367577
 H         -3.2442896732        1.3779874165       -0.7003412888
 H         -2.3068077386       -0.9088093489        1.0988157838
 H         -2.1067770590        0.8088704087        1.4471959996
 H         -0.9121407667       -0.6592372763       -0.9503947016
 H         -0.7198781840        1.0585710839       -0.6082201004
 H          0.2256056584       -1.2623536685        1.1515889877
 H          0.3997781567        0.4547602427        1.5773050821
 H          1.7128882673        1.6976172406        0.2218426132
  17
        -23.95572889
 C         -1.8475095150       -1.0169530120       -0.4308886986
 C         -2.0887732231        0.4437684383       -0.0696621999
 C         -0.9418718906        1.0654660611        0.7279877712
 C          0.3672705298        1.1281181926       -0.0633100140
 C          1.1624696188       -0.1525040646        0.0252241503
 O          1.1202035865       -0.9149088402        0.9628262870
 O          1.9887096611       -0.4071319551       -0.9925827781
 H         -1.6300869207       -1.5988038195        0.4625007336
 H         -2.7258488511       -1.4380465650       -0.9140146109
 H         -1.0036993585       -1.1250250290       -1.1090390516
 H         -2.9982333986        0.5116917481        0.5301885821
 H         -2.2514150695        1.0218481571       -0.9822952489
 H         -1.2302142496        2.0752473526        1.0221958707
 H         -0.7693614377        0.4820597978        1.6347615177
 H          1.0083799712        1.9048737069        0.3624580104
 H          0.1657438712        1.3821141248       -1.1046899454
 H          1.9864367108        0.2774081859       -1.6861803186
  17
        -23.95558752
 C         -2.3524779815       -0.7032238000        0.3637056915
 C         -1.6441245939        0.0787688006       -0.7369177235
 C         -0.8279272942        1.2590256170       -0.2056720209
 C          0.2826177365        0.8382717911        0.7699450164
 C          1.1810524540       -0.2170022486        0.1745733630
 O          1.2504985311       -1.3512245712        0.5922409897
 O          1.9225401593        0.1489623973       -0.8693086944
 H         -1.6335476655       -1.2373926362        0.9804701847
 H         -2.9330577893       -0.0353278426        0.9958462798
 H         -3.0265007865       -1.4363725694       -0.0722292058
 H         -2.3877437834        0.4649114603       -1.4372157437
 H         -0.9899073339       -0.6007514278       -1.2897593231
 H         -0.3991563660        1.7934438026       -1.0551585294
 H         -1.4926289613        1.9477173028        0.3177073627
 H         -0.1528607810        0.4276112562        1.6797329431
 H          0.8837546970        1.7095341797        1.0356809949
 H          1.8137307060        1.0856633460       -1.1141154066
  17
        -23.95546238
 C         -1.8642431116       -1.0224816567       -0.1779737078
 C         -2.0001317647        0.4280947091        0.2705547420
 C         -0.8650809312        1.3250475173       -0.2248728934
 C          0.4717635586        1.0699668396        0.4867814782
 C          1.1621395709       -0.2144328447        0.1012768536
 O          1.5034036105       -1.0566066838        0.9035238507
 O          1.4342793636       -0.3852876947       -1.1899634221
 H         -1.8187481919       -1.0888874989       -1.2629154433
 H         -0.9671271272       -1.4801227914        0.2328263113
 H         -2.7183427489       -1.6025595813        0.1628345322
 H         -2.0421666211        0.4661935147        1.3607317772
 H         -2.9430440154        0.8249555678       -0.1115675040
 H         -0.7619238158        1.1980006625       -1.3040353221
 H         -1.1404103120        2.3642042823       -0.0389578217
 H          0.3208104247        1.0506029193        1.5665416215
 H          1.1630311182        1.8838689321        0.2540062645
 H          1.1644132439        0.3699152438       -1.7438277695
  17
        -23.95528794
 C         -2.8489613218        0.2488994285        0.9851633900
 C         -2.3092009098        0.1623951802       -0.4383417378
 C         -0.8148951214        0.4718996492       -0.5369832318
 C          0.0536600040       -0.6009032212        0.1413538548
 C          1.5051024786       -0.2649611934       -0.0809077427
 O          2.1608669761       -0.7080281579       -0.9972920037
 O          2.0555231965        0.6007994500        0.7677920460
 H         -2.4152944019       -0.5197531052        1.6188375321
 H         -2.6327646565        1.2233809310        1.4167146578
 H         -3.9269821103        0.1100986451        0.9823863140
 H         -2.8444163964        0.8797439598       -1.0633251821
 H         -2.4989409358       -0.8336709085       -0.8419679443
 H         -0.5298536805        0.5264251510       -1.5900109020
 H         -0.6192926430        1.4481300260       -0.0892082523
 H         -0.1478787275       -1.5682425686       -0.3188679357
 H         -0.1686123274       -0.6518561490        1.2063771753
 H          1.4575975040        0.8813747771        1.4845751074
  17
        -23.95519749
 C         -3.0197105087        0.0243796770       -0.4501222966
 C         -2.1732000592        0.4952418513        0.7266287415
 C         -0.7689446814       -0.1098529906        0.7386905257
 C          0.0807776981        0.3500650843       -0.4580527859
 C          1.4850192749       -0.1676236750       -0.2871836713
 O          1.8807747744       -1.2020391762       -0.7760135345
 O          2.2976104102        0.5533974439        0.4829490642
 H         -2.6142528373        0.3793323264       -1.3936503539
 H         -3.0596747778       -1.0621322363       -0.4789447731
 H         -4.0347487875        0.4018009832       -0.3556551436
 H         -2.6708104569        0.2112638153        1.6557700397
 H         -2.1001900908        1.5842052382        0.7083888323
 H         -0.2715954461        0.1730387809        1.6689248834
 H         -0.8383352578       -1.1993160442        0.7209814238
 H          0.0753884940        1.4386897500       -0.5202685894
 H         -0.3237720134       -0.0683861352       -1.3783730193
 H          1.8975209234        1.3807582682        0.8078499751
