! pbe def2-sv(p) def2/J RI DEFGRID1 loosescf d4 GCP(DFT/SV(P)) printgap
%output
    printlevel normal
end
* xyz 0 1
C 4.4373992271 -1.6868214065 -1.9904649333
C 3.6637978687 -2.3204733866 -0.853636762
O 3.2846132711 -1.3702156355 0.1601245485
P 2.4704033929 -0.0295496596 -0.0936707436
S 3.4012262725 1.5238596017 -0.8349731324
O 1.969378078 0.3175129313 1.3561147223
C 1.2182423975 -0.5866842398 2.2056704161
C 0.7083154058 0.2233382233 3.3793052386
S 0.7829411055 -0.7073864213 -1.2162850197
C 0.1271138329 0.9372945838 -1.5529880674
S -0.6900651326 1.6780926508 -0.1158190517
P -2.4114629295 0.4525789392 -0.2020636324
S -3.1088333274 -0.0348046303 -1.9604222331
O -3.5115475737 1.2550041728 0.6091521936
C -3.2892969915 1.9500319081 1.8596613262
C -3.2951636596 1.0038611909 3.0434435616
O -1.9279193541 -0.7711715289 0.7104376966
C -2.5730817089 -2.0630617075 0.657950183
C -1.7642600428 -3.0322060668 -0.180381842
H 4.7684853135 -2.4594767915 -2.6768185199
H 3.8056009605 -0.9812365802 -2.5283307904
H 5.3018744125 -1.1489574835 -1.6083610503
H 4.2736200224 -3.044499222 -0.3103689555
H 2.7553133243 -2.8017551327 -1.2261164693
H 0.3926981401 -1.0066975925 1.6234322862
H 1.8862535394 -1.3892643561 2.5234680396
H 0.0733610687 1.030267521 3.0222867502
H 0.141072547 -0.4221448792 4.0422912034
H 1.5428983438 0.6555337135 3.923659952
H -0.5938936919 0.8373718369 -2.3649026928
H 0.9492457239 1.6019283245 -1.8242253579
H -2.3448706917 2.4971267886 1.7911023563
H -4.1181941454 2.6582661073 1.9097729392
H -2.452301928 0.3202767605 2.9893344276
H -3.222261162 1.5844302618 3.9578744362
H -4.2185577888 0.4306333433 3.0574643205
H -2.6347820799 -2.3886773774 1.6978857666
H -3.5804158614 -1.9448880769 0.2483391705
H -0.7550092723 -3.1222507414 0.2111412634
H -2.245503824 -4.0046322541 -0.1646567128
H -1.7071619537 -2.6799027324 -1.2081439206
*
