! pbe def2-sv(p) def2/J RI DEFGRID1 loosescf d4 GCP(DFT/SV(P)) printgap
%output
    printlevel normal
end
* xyz 0 1
C 1.7880858595 3.0423960836 -0.850661699
C 1.6302009053 1.5928675928 -1.257661099
O 1.1466399028 0.8174743842 -0.1343820244
P 2.1555958768 -0.154369688 0.6204063359
S 3.992983603 0.481194227 0.8437747237
O 2.0342547602 -1.473453438 -0.2677034509
C 2.9603116732 -2.5714213075 -0.1718723419
C 3.037279599 -3.2374162486 -1.5311247152
S 1.1027077385 -0.5561065593 2.38486326
C -0.4859794602 -1.1330884873 1.6949467292
S -1.6730990249 0.2056080251 1.4437611232
P -1.8407640292 0.2062773137 -0.6864445854
S -0.8987130248 -1.2286365679 -1.6315570294
O -1.4383628511 1.6498617002 -1.1859094669
C -2.276479518 2.8265057142 -1.092546757
C -2.583829565 3.2099952671 0.339409156
O -3.41466601 0.2312178799 -0.9499670103
C -4.2052040531 -0.9629987729 -1.0597962773
C -4.2461109335 -1.7571725855 0.2299880222
H 2.5520914978 3.1288252454 -0.0804384379
H 2.0862645228 3.6257872507 -1.7157507198
H 0.8484030023 3.4234419288 -0.4610250777
H 2.5821812423 1.1737464261 -1.596137298
H 0.8806741122 1.4662622859 -2.040547708
H 3.9349383126 -2.1822847246 0.1427771071
H 2.5849105504 -3.2614676065 0.5881780614
H 3.4577800757 -2.5525627203 -2.2622620574
H 3.6648989893 -4.1195612827 -1.4617354884
H 2.0401527917 -3.5234051142 -1.855982496
H -0.8949911289 -1.8106383122 2.4392580764
H -0.3083012149 -1.6345779442 0.7393113951
H -1.6864294983 3.5934384493 -1.5974274704
H -3.1955395778 2.6385731635 -1.6506799064
H -1.6661301331 3.321521598 0.9122156404
H -3.1243766459 4.1514763859 0.3463160684
H -3.1972502113 2.4452574614 0.8128773109
H -5.1942500496 -0.5936654951 -1.3349252289
H -3.7968103711 -1.5726261142 -1.8718215866
H -3.26530052 -2.1837868792 0.4346320515
H -4.5355399968 -1.1194113752 1.06118825
H -4.9639700564 -2.5647312093 0.1279837243
*
