! pbe def2-sv(p) def2/J RI DEFGRID1 loosescf d4 GCP(DFT/SV(P)) printgap
%output
    printlevel normal
end
* xyz 0 1
C 3.4601740142 -0.5564686752 -3.0094743872
C 4.2177841571 -0.5737254662 -1.699233644
O 3.5843356328 0.2151340937 -0.6723915854
P 2.0561666425 0.1195640508 -0.2543165122
S 0.7810326046 1.0662100386 -1.3990471049
O 2.0464483302 0.7720018673 1.1775672044
C 2.909998265 0.3705594338 2.2691799072
C 4.1019297367 1.299394083 2.3732662415
S 1.8317268207 -1.9839116298 0.0313595518
C 0.149343508 -2.0528568074 0.6914002127
S -1.1348487905 -1.6637009256 -0.5424841207
P -1.9924795206 0.0207307142 0.3963189432
S -1.0973655671 0.8187355147 1.9371522209
O -3.3875124808 -0.6833488896 0.7642079686
C -4.2705368531 -0.1551817331 1.769540049
C -4.9711365377 1.1040206785 1.3000219104
O -2.3104363433 1.0791180379 -0.7350675861
C -2.8172745026 0.6863373804 -2.034116308
C -3.6310246452 1.8374722981 -2.5864634457
H 3.3082830552 0.4661439753 -3.3472676372
H 4.022699092 -1.1046566974 -3.7582573188
H 2.4841662526 -1.0243229549 -2.8851698665
H 5.2030682021 -0.1157458229 -1.802639744
H 4.3183431844 -1.5957609895 -1.3241928349
H 2.2731437557 0.4361805598 3.15421402
H 3.2263896215 -0.6646494627 2.1121113335
H 3.7630103278 2.3244921738 2.495896943
H 4.7001970029 1.0133149806 3.2325812362
H 4.7077565025 1.2366313188 1.473185096
H 0.0508096734 -1.3546514212 1.5272686973
H 0.0061753127 -3.0813762017 1.0121220164
H -4.9752149286 -0.9672099338 1.9543149459
H -3.6853610528 0.0435889457 2.6733104506
H -5.6561484504 1.4436324083 2.0705614061
H -4.2358211401 1.8859662013 1.1098248188
H -5.5258731823 0.9088908641 0.3856196497
H -1.9495206303 0.4737186412 -2.6644576802
H -3.4191827151 -0.2204300555 -1.9207595774
H -3.0116812745 2.7284653742 -2.6386005751
H -3.9765612084 1.5801388618 -3.5823312676
H -4.4861380205 2.0404880648 -1.9475819015
*
