! pbe def2-sv(p) def2/J RI DEFGRID1 loosescf d4 GCP(DFT/SV(P)) printgap
%output
    printlevel normal
end
* xyz 0 1
C 2.7027641661 3.0223623077 -0.053919355
C 3.0384897644 1.6170899885 -0.515383964
O 3.160153719 0.7197742143 0.6023249825
P 1.9473498773 -0.1143757974 1.1981782571
S 0.4534641566 0.8882592235 1.9689292044
O 2.6363705146 -0.9597309144 2.3348700854
C 3.5443461799 -2.075651881 2.1669218663
C 4.7568728083 -1.7400275353 1.3262033449
S 1.4725791806 -1.4723084971 -0.3808337888
C -0.2207148274 -1.901248006 0.1216436489
S -1.3811681951 -1.9052736438 -1.2763044278
P -2.082474431 0.079867453 -1.1775651752
S -3.4876586272 0.5716188048 -2.4481116364
O -0.7038036479 0.8572138284 -1.3260608302
C -0.6906280763 2.2461980647 -1.7212403387
C -1.2987453614 3.1439504186 -0.6647779784
O -2.4442938042 0.3273408873 0.3552432389
C -3.7745718834 0.1427280016 0.8609203829
C -4.1521407496 -1.3232556768 0.9395368197
H 2.6738275202 3.6885196967 -0.9104578815
H 1.7361879917 3.0370564329 0.4443721333
H 3.4568642489 3.3721632058 0.6457095586
H 4.0169064256 1.5842491809 -0.9993395794
H 2.2818747949 1.2292731263 -1.2037689616
H 3.8218614642 -2.3220573549 3.1929567558
H 2.9859588085 -2.9043672983 1.724165294
H 4.4655711385 -1.5720391887 0.2915850206
H 5.2441259087 -0.8464348909 1.707028426
H 5.4528319708 -2.5725438376 1.3649681757
H -0.5527488343 -1.1761929376 0.8693581853
H -0.2227762698 -2.9163104535 0.5091457966
H 0.3655079939 2.4661609653 -1.8800636765
H -1.2356053748 2.3368621825 -2.6663595084
H -0.8660552155 2.9249875749 0.3092925615
H -1.1132100299 4.1818671155 -0.9217979934
H -2.3737050448 2.9780430256 -0.610286003
H -3.7480360693 0.6088156298 1.8470387519
H -4.4701188318 0.6823710808 0.2097351067
H -3.4332236089 -1.8695748968 1.5449522831
H -5.1377562428 -1.4155537248 1.3842769818
H -4.1740710759 -1.7549992167 -0.0609611976
*
