! pbe def2-sv(p) def2/J RI DEFGRID1 loosescf d4 GCP(DFT/SV(P)) printgap
%output
    printlevel normal
end
* xyz 0 1
C 2.4779076072 -0.0099955076 0.6659370096
N 1.0674766164 0.0255231667 0.3550604988
C 0.7071739655 1.1299595023 -0.5151566352
C -0.8292960477 1.2801634773 -0.539018895
N -1.5318446437 0.0406595161 -0.2373160508
C -0.804043949 -1.077301394 -0.7995924503
C 0.6109496214 -1.2385869605 -0.2038188743
C -1.8311477141 -0.1285764018 1.1745012532
H 2.7603712582 0.9227170401 1.1511335441
H 3.1067995536 -0.1492161488 -0.2289505265
H 2.6654458095 -0.8347272963 1.3520307287
H 1.1629089959 2.041301986 -0.1244237404
H 1.0947471792 0.9716596864 -1.5388400541
H -1.1451458189 2.0338494934 0.1816455706
H -1.1418518185 1.6088769416 -1.5361767103
H -1.3818641333 -1.9895575095 -0.6430163146
H -0.7354146215 -0.900629484 -1.8766628156
H 0.6070766776 -1.9727097302 0.6068803329
H 1.2987495163 -1.6030918112 -0.9891527312
H -2.3542749733 -1.0748049938 1.3022588835
H -2.4953518646 0.6771906105 1.4838934041
H -0.939869269 -0.1222327898 1.8108245982
*
