  21
        -24.05854995
 C          3.8467887975        0.3458844254       -0.0096836544
 C          2.5803059003       -0.5021006863        0.0019965941
 C          1.3194665724        0.3595791395       -0.0006735120
 C          0.0472954300       -0.4851846899        0.0102067854
 C         -1.2108225713        0.3790048829        0.0022948799
 C         -2.4794472321       -0.4736916800        0.0217081205
 O         -3.6631640751        0.2922177838       -0.0661342930
 H          4.7307226084       -0.2869817165       -0.0089791926
 H          3.8750860819        0.9753236115       -0.8962270305
 H          3.8829544476        0.9884230530        0.8671249169
 H          2.5786360377       -1.1400263248        0.8886221390
 H          2.5720691294       -1.1542729915       -0.8741133457
 H          1.3213937764        0.9971208563       -0.8876090502
 H          1.3284822123        1.0120122757        0.8754319698
 H          0.0423793286       -1.1208266324        0.8987318109
 H          0.0403528813       -1.1403894300       -0.8635363322
 H         -1.2244281050        1.0063670219       -0.8913742587
 H         -1.2042430068        1.0369141207        0.8748524547
 H         -2.5006510948       -1.1349807549       -0.8481207838
 H         -2.4989207247       -1.0971164978        0.9266024774
 H         -3.6966413049        0.9065688248        0.6803683143
