! pbe def2-sv(p) def2/J RI DEFGRID1 loosescf d4 GCP(DFT/SV(P)) printgap
%output
    printlevel normal
end
* xyz 0 1
C 3.569306662 -2.0492059016 -2.10241675
C 3.979781718 -0.5908237101 -2.0669479617
O 3.5423689217 0.0780147788 -0.8731807396
P 2.0066326022 0.3395788723 -0.5125742765
S 0.9066766436 0.8508091992 -2.0428029377
O 2.1619734793 1.4737397316 0.5621414882
C 2.917803267 1.3065546284 1.7894917622
C 2.4495232583 2.3662737305 2.7635429881
S 1.4222946433 -1.4146873821 0.5574843192
C 0.0604723574 -2.0035288845 -0.4966747486
S -1.5389309077 -2.0988248598 0.3555842565
P -2.0725683139 -0.0701214281 0.3878621447
S -0.9092605596 1.2518350512 1.2654465786
O -3.5505895886 -0.0743249546 0.9760360114
C -3.8183894725 0.0634496885 2.3823585057
C -3.3312413431 -1.1366227157 3.1678393275
O -2.3383842381 0.1419628049 -1.1575916411
C -2.6585687638 1.440286622 -1.7024812545
C -2.5892863659 1.3364435147 -3.2109170525
H 2.4904534505 -2.1292564523 -2.2260161377
H 4.054432141 -2.5345528336 -2.9431976583
H 3.8601143204 -2.5468625176 -1.1807614399
H 3.572971983 -0.0548941923 -2.9302988707
H 5.064785616 -0.479458749 -2.0402511296
H 2.7331878719 0.3004177572 2.1776300993
H 3.9762519949 1.4139550235 1.5438200961
H 2.9789893863 2.2485718079 3.7031437519
H 2.639175217 3.3561289916 2.3588164814
H 1.3801919033 2.2610560252 2.932360178
H 0.2878046169 -3.0250962655 -0.7898921276
H -0.0283859527 -1.3425344838 -1.3633285936
H -3.3341543199 0.9791182803 2.7372382123
H -4.9026009041 0.17040745 2.4334110572
H -3.73703478 -2.0534468839 2.7477462286
H -2.2432455796 -1.1857310729 3.1293734988
H -3.6434810785 -1.0416686143 4.202796423
H -3.659318736 1.7145552669 -1.3594339061
H -1.9341187149 2.1671225575 -1.3186717086
H -2.8777594363 2.2872904082 -3.6464389146
H -1.5734564037 1.0962190209 -3.5160864226
H -3.260097067 0.556638141 -3.5588020749
*
