! pbe def2-sv(p) def2/J RI DEFGRID1 loosescf d4 GCP(DFT/SV(P)) printgap
%output
    printlevel normal
end
* xyz 0 1
C 1.8730812757 -0.5037569752 -3.1588181705
C 1.8430649768 -1.421647162 -1.9536231878
O 1.191705867 -0.7921932235 -0.8274465347
P 1.9363217338 0.1736592745 0.1845130834
S 2.6897553511 1.870432101 -0.4384025149
O 3.0376295269 -0.8346795711 0.7607575908
C 4.1925473977 -0.3720127843 1.475952592
C 3.8333779115 0.1298593821 2.8600520697
S 0.4642536972 0.3242825697 1.6871931944
C -0.1110950265 -1.3889901433 1.7651152388
S -1.2240064626 -1.8919740566 0.4010850104
P -2.0560100526 -0.0602649184 -0.214900936
S -1.0857057583 1.3232699347 -1.2363976931
O -2.690697976 0.3846117089 1.1661831778
C -3.2985863324 1.6815723578 1.3620441195
C -2.3256527372 2.637197385 2.0239730056
O -3.343905732 -0.5533468535 -1.0152132375
C -3.3329939044 -0.7711185879 -2.4352799343
C -2.4251551497 -1.9223474853 -2.8169652674
H 2.5120878042 0.3559120125 -2.966305975
H 2.2531871758 -1.0476231963 -4.0174928205
H 0.8719809575 -0.1375666497 -3.3758072669
H 2.8506175921 -1.7218521823 -1.6569130641
H 1.233541368 -2.3088652747 -2.140042668
H 4.8466290257 -1.2440532439 1.5179557659
H 4.6648471904 0.423937459 0.8911297766
H 3.3045140242 -0.6370519398 3.4196799803
H 4.7408292762 0.4012546071 3.3895759306
H 3.1958698033 1.0099622513 2.77847446
H -0.6580515489 -1.4706919182 2.7015405178
H 0.738928927 -2.0678487935 1.739116896
H -3.6356163727 2.0709980433 0.3974149454
H -4.1609009527 1.4833633253 2.0004956817
H -2.8336922361 3.5710422053 2.241866358
H -1.9437438394 2.2064261117 2.9453420317
H -1.4846422963 2.8388990492 1.3630795592
H -4.3760935733 -0.9751929218 -2.6795695665
H -3.0083112375 0.1536939608 -2.9240080174
H -1.3947905861 -1.6674979257 -2.5676423581
H -2.7039148199 -2.8208570927 -2.2721558217
H -2.4967011902 -2.1045774461 -3.8843318679
*
