! pbe def2-sv(p) def2/J RI DEFGRID1 loosescf d4 GCP(DFT/SV(P)) printgap
%output
    printlevel normal
end
* xyz 0 1
C 3.4150268851 2.1487318951 -1.4833478808
C 4.0187676512 1.6011819438 -0.2065447162
O 3.6190456166 0.2409194091 0.0202650698
P 2.1313368542 -0.1293048147 0.4481301719
S 1.362493328 1.1522552306 1.7249873962
O 2.2778101879 -1.6435777063 0.8850264914
C 3.3354955346 -2.141791292 1.7367343482
C 3.2874330051 -1.5409835597 3.1254838497
S 1.1135373351 -0.4201338075 -1.4041976836
C 0.0266294858 -1.7987732639 -0.9460024509
S -1.0095636366 -1.4546859107 0.4992485134
P -2.1533442397 0.0782188331 -0.403278784
S -2.5755425963 -0.152695318 -2.3073733691
O -1.2937254817 1.3658614463 -0.0776249544
C -1.2861492095 2.5382298449 -0.9108158347
C -2.5852882381 3.3045005669 -0.7841096089
O -3.3678382726 0.2771796725 0.5984928452
C -4.2266644232 -0.763926301 1.1000558258
C -4.7951114616 -1.6422662065 0.004683131
H 2.3280541513 2.1701357844 -1.3943016108
H 3.7758837921 3.1575939337 -1.6546525369
H 3.678327786 1.5188927301 -2.3289807473
H 3.708639595 2.2014520445 0.6557730667
H 5.1071383368 1.5555638904 -0.258641473
H 3.1523024673 -3.2173440202 1.7610845415
H 4.2917080392 -1.9353288218 1.2518013723
H 4.0448410094 -2.0086853025 3.7466622508
H 3.4756355744 -0.4692993452 3.0795040023
H 2.3076699946 -1.6979242554 3.5707630309
H 0.6205065634 -2.6763894851 -0.7073679908
H -0.6097071383 -1.9685329471 -1.816019606
H -0.4345709704 3.1141634623 -0.5438999592
H -1.1114116583 2.2303115882 -1.947655428
H -2.5321211529 4.2098299888 -1.3802432619
H -3.4083423888 2.6865759533 -1.1426128266
H -2.7668714733 3.5611068506 0.2562015281
H -3.6532538519 -1.359296567 1.8165277716
H -5.013356128 -0.2160328843 1.6220847584
H -3.995707251 -2.1964200411 -0.4856934308
H -5.4993385842 -2.3454975912 0.4374985673
H -5.3031927717 -1.0369943089 -0.7424003643
*
