! wb97x-v def2-tzvp def2/J RIJCOSX DEFGRID2 scfconv7 GCP(DFT/TZ) printgap
%output
    printlevel normal
end
* xyz 0 1
C 0.025915477932261302 -0.6378829803511338 3.170567801040262
C 1.1468807371616752 -0.05436614710759721 2.351279457185976
O 1.566743352308378 -1.0887573707714213 1.3872234070618354
P 2.45213398214959 -0.7321762141638165 0.10084822046050661
S 2.9223945930200945 -2.332873353608817 -0.8962507550755171
O 3.631696200803488 0.1388958334335456 0.7631708458172313
C 4.76943468801611 0.6181401456349543 -0.03794729622884198
C 5.862011476484464 1.0038407713387798 0.9238603961027055
S 1.45272615815105 0.7764868721510015 -1.0167836770284253
C 0.37431174465571804 -0.24723836939936855 -2.0911222777023606
S -1.0006832429337607 -1.1548952825964485 -1.280013168507211
P -2.2677563110761554 0.4635471421096986 -0.7465436723183002
S -2.5204443621373493 1.8429567893404462 -2.0932724242190606
O -1.628450966486543 0.9237121831566512 0.6549377382034822
C -1.8500507962474058 2.2616018932321396 1.2212125042615867
C -3.242629052248692 2.4106732782193534 1.7820611580868428
O -3.6403056389070643 -0.2990510756133225 -0.3943481972554284
C -3.732475506623833 -1.202858505977784 0.7708495422711232
C -5.118903310922366 -1.7893158709090613 0.7638085368124108
H -0.8240106667738505 -0.9088781696336236 2.5380208033864236
H 0.36210398745152483 -1.5232144846389473 3.7177317396632477
H -0.30718314400072805 0.11010914383862315 3.896951735936897
H 2.015517966401845 0.19727173070743437 2.9658197598638556
H 0.825080133470063 0.8324353082027945 1.7958338689282747
H 5.084530638441768 -0.18638864929240792 -0.710039064588634
H 4.42735581150484 1.4727176164312108 -0.6296636845128191
H 5.523530087682019 1.7869939540124755 1.6081020012756218
H 6.195388273453428 0.1391827466292917 1.5043614930933291
H 6.713580882252624 1.388246486127651 0.35418849915590417
H 0.9777161070013698 -1.0144068250199199 -2.5854248320348803
H -0.03392468879812852 0.43665022468664305 -2.841090209193366
H -1.0904929201789448 2.3368718587227684 2.002756915655538
H -1.6369247330763392 3.00125866092681 0.44337148301722934
H -3.328001698720182 3.398613331738862 2.2466167029607242
H -4.002782178454427 2.3386194714554915 0.9978839050888766
H -3.441736208618461 1.6536730391899948 2.5458574812370998
H -2.9669695441930126 -1.9804891972912033 0.6773703122275567
H -3.542873856256876 -0.614141167902036 1.6720499103375674
H -5.874307889131663 -1.0022220163854456 0.8404430777136351
H -5.295626587907157 -2.3702158614799846 -0.14545502739213947
H -5.22398515701555 -2.4544588667396128 1.6263859391288487
*
