! pbe def2-sv(p) def2/J RI DEFGRID1 loosescf d4 GCP(DFT/SV(P)) printgap
%output
    printlevel normal
end
* xyz 0 1
C 3.5090946837 -3.0401103758 0.3141222921
C 3.0020018453 -1.6921610748 0.8006375641
O 2.7033930124 -0.819979206 -0.3062933345
C 1.5558292315 -0.9609710303 -0.9331532618
O 0.6947785774 -1.7657020797 -0.6390265098
C 1.4117114091 0.0249624847 -2.0749307265
C 0.2209788011 0.954969092 -1.8272599496
H 0.0823185145 1.6060616369 -2.6954534205
C 0.403673297 1.8252366548 -0.597539148
O -0.4863945611 1.9945340676 0.2145880971
O 1.5917332767 2.3573184024 -0.5436630833
C 1.9544863298 3.1447442522 0.6118804427
C 2.614528461 2.2609576455 1.6567705624
S -1.3614171603 0.0625602256 -1.6642088391
P -1.646487882 -0.2392682546 0.4331724861
S -0.3136239321 -0.3810190748 1.8649242381
O -2.798213359 0.7574265054 0.873199577
C -4.016661432 0.9401139185 0.1330981808
O -2.5367383694 -1.5792243588 0.3332234963
C -1.9946182234 -2.8828070325 0.1308482981
H 3.7882274349 -3.6443665217 1.1707186354
H 2.7291973405 -3.5561795527 -0.2410526412
H 4.3747220538 -2.90447979 -0.3285505133
H 3.7667263095 -1.1586299428 1.3646965294
H 2.1006825122 -1.8025975558 1.4109188354
H 1.2263610427 -0.5369032108 -2.9910249273
H 2.3242461499 0.6131073044 -2.1618531751
H 2.6468378323 3.8915352768 0.2231264706
H 1.0552317767 3.6200495946 1.0116789674
H 1.9114886652 1.5092173236 2.0142114996
H 3.4771221273 1.7582550991 1.2285868849
H 2.9306989303 2.8709320692 2.4960833741
H -4.5813973661 0.0093401505 0.1117009217
H -3.7934772618 1.2661293955 -0.8830203379
H -4.5593381682 1.7114485302 0.6734918627
H -1.6432627533 -2.9871370089 -0.8948975749
H -2.809241353 -3.5725700988 0.3369765764
H -1.1619411684 -3.0528884181 0.8141846517
*
