! pbe def2-sv(p) def2/J RI DEFGRID1 loosescf d4 GCP(DFT/SV(P)) printgap
%output
    printlevel normal
end
* xyz 0 1
C 4.5762143952 -0.9666630831 -2.0383074054
C 3.7350857465 -2.0382144379 -1.376239837
O 3.105980945 -1.5898578163 -0.1617353274
P 2.2318395425 -0.2722643576 0.0051205049
S 3.1918464379 1.436612519 0.1369378449
O 1.4165808119 -0.6655237325 1.3030245531
C 1.6830896038 -0.1433666967 2.6230504322
C 0.3789214722 0.2814753763 3.2667130285
S 0.8028471805 -0.4516027544 -1.5436806122
C 0.2515035359 1.2720130784 -1.5407118764
S -0.6848831535 1.7292917049 -0.0609496343
P -2.2191695724 0.2818193204 -0.2853965092
S -2.7906105871 -0.1145300256 -2.1097077907
O -3.4254814631 0.8207899881 0.5852014096
C -3.3678528237 1.0592487105 2.0142584411
C -3.0939433733 2.5198676127 2.3108026719
O -1.5925288585 -0.9317086902 0.5476876876
C -1.7152360126 -2.3038690041 0.1391675065
C -3.0719132687 -2.8621107006 0.5180002529
H 5.0968382062 -1.3930755884 -2.8897545256
H 3.9432173774 -0.1501845581 -2.3833941751
H 5.3030172322 -0.5658811963 -1.3355819979
H 4.3475997909 -2.8810481165 -1.0507526488
H 2.9519736739 -2.3894905378 -2.0541512351
H 2.1611590193 -0.9491436693 3.1842380774
H 2.3758249045 0.700877475 2.5375532519
H -0.0557962621 1.1129450091 2.7177279848
H -0.3196357842 -0.5508293829 3.2671308738
H 0.572444637 0.591071128 4.2885530015
H -0.3790570072 1.3923942646 -2.4207919302
H 1.1173733836 1.9339905253 -1.5720612524
H -4.3555963181 0.7642958372 2.3727030139
H -2.6047458402 0.4128923631 2.452368863
H -2.1107463648 2.8097365905 1.9452202987
H -3.840375457 3.1441020597 1.8275457671
H -3.134600365 2.67689927 3.3840727756
H -1.5594405294 -2.366013626 -0.9428781387
H -0.8999175187 -2.8135490185 0.6558809551
H -3.8523295649 -2.3051884253 8.18911e-05
H -3.1275366608 -3.9050534985 0.2228698835
H -3.2316854306 -2.7812201051 1.5899075735
*
