! pbe def2-sv(p) def2/J RI DEFGRID1 loosescf d4 GCP(DFT/SV(P)) printgap
%output
    printlevel normal
end
* xyz 0 1
C 5.2622165356 0.1141858949 -1.1003736822
C 4.4688887868 1.2766892389 -0.5381223733
O 3.457856092 0.8260581366 0.3835511717
P 1.9864652018 0.4584101105 -0.0774255879
S 1.1209571146 1.7566788461 -1.2644040258
O 1.2209355006 0.3391101488 1.2967430331
C 1.7779677114 -0.1380450755 2.549771493
C 2.3054509825 -1.5539436694 2.4650281942
S 2.1276136061 -1.4859775948 -0.9316182191
C 0.3842005912 -1.6806784996 -1.3401566346
S -0.6624943369 -1.9431714466 0.1356786485
P -2.0747116251 -0.404726909 -0.0761188477
S -2.2847500985 0.3506240655 -1.877497232
O -1.8198568285 0.6667013902 1.077585637
C -1.5962957869 2.0699003632 0.8784614788
C -2.7398072275 2.8567806421 1.4870115573
O -3.2611173267 -1.270947307 0.52807329
C -4.4764337198 -0.7074240427 1.0591224904
C -5.3810207601 -0.1703116829 -0.0321239598
H 4.6206252729 -0.5367693078 -1.6901921224
H 6.0540790624 0.500817144 -1.7338638931
H 5.7004927733 -0.4652303705 -0.2929036838
H 3.9866339046 1.8537165209 -1.333834154
H 5.1011589934 1.9369906832 0.0582199181
H 2.5641983156 0.5567020082 2.8503899278
H 0.9313961786 -0.0674902799 3.2351100264
H 3.1620774501 -1.6012060406 1.7964207461
H 2.6130537572 -1.870763841 3.4568472657
H 1.5333243292 -2.2274232153 2.0991574819
H 0.3153703226 -2.5679814438 -1.9640715251
H 0.02258654 -0.7967597013 -1.8750523806
H -0.6442723934 2.3003754428 1.3614275699
H -1.5056166916 2.2723558702 -0.1944016169
H -3.6671664957 2.6378660948 0.9623046499
H -2.8528801142 2.6013527354 2.5370682946
H -2.5247650864 3.9165032192 1.3959383175
H -4.9394717001 -1.5459978703 1.5821935111
H -4.2153184283 0.0758541268 1.7756322093
H -4.8971204343 0.6526983383 -0.5562811992
H -5.6009652318 -0.9510316236 -0.755765121
H -6.3076531639 0.1838581217 0.4085939125
*
