! pbe def2-sv(p) def2/J RI DEFGRID1 loosescf d4 GCP(DFT/SV(P)) printgap
%output
    printlevel normal
end
* xyz 0 1
C 1.077370749 -1.6028060537 -2.2473542975
C 2.4596361962 -1.0239388956 -2.0208187192
O 2.455211485 0.0197154334 -1.0191672224
P 2.5186516716 -0.1610340601 0.5481277992
S 3.0029829651 1.5554351262 1.3565615509
O 3.5297405676 -1.3795443739 0.6796537665
C 3.6971717729 -2.1969396398 1.854670716
C 4.0219566136 -1.3864173489 3.0913662823
S 0.6850485624 -0.9812787574 1.2619851333
C -0.1828722187 0.5908695598 1.4353380802
S -0.4357111674 1.4505191957 -0.1502073632
P -2.2228138089 0.4942782175 -0.7430675208
S -2.9272855011 1.0455895809 -2.4871560416
O -3.2618477316 0.6635806951 0.4625568336
C -4.2056716681 1.7443412006 0.4972670562
C -3.5326406056 3.0683410152 0.7985335574
O -1.7707160053 -1.0080788129 -0.5382646974
C -2.6796190046 -2.1325970687 -0.5546139738
C -2.9326353692 -2.6188424478 -1.9673189861
H 0.7333866704 -2.1406744873 -1.3667958606
H 0.3670635885 -0.8078810666 -2.4710896214
H 1.1161178267 -2.2866524044 -3.0898692672
H 2.8246237069 -0.5140049812 -2.9141569256
H 3.168245093 -1.797127165 -1.7191163722
H 2.780801922 -2.7751960312 2.0003923288
H 4.5196287926 -2.8626601465 1.5867940026
H 4.2222120238 -2.0581453659 3.919802511
H 4.8929302064 -0.7593371667 2.9163689928
H 3.1834762516 -0.741665098 3.3497399797
H 0.4233780707 1.2641678622 2.0418914948
H -1.1430350963 0.3805787524 1.8991270593
H -4.71856501 1.7877286302 -0.4690213642
H -4.9091506406 1.4604454547 1.2812274525
H -4.2860128185 3.8452183073 0.8793860156
H -2.9736751509 3.0119868861 1.7292091192
H -2.8462955517 3.3264338156 -0.0079843691
H -2.1661865077 -2.88829682 0.0431635562
H -3.6108693102 -1.8438479454 -0.0624466069
H -3.4186509375 -1.8420627008 -2.5542254664
H -1.9941745352 -2.880081739 -2.4484913478
H -3.5754851312 -3.4927779091 -1.9345414422
*
