! wb97x-v def2-tzvp def2/J RIJCOSX DEFGRID2 scfconv7 GCP(DFT/TZ) printgap
%output
    printlevel normal
end
%cpcm
    smd true
    smdsolvent "water"
end
* xyz 0 1
C 0.19896060593975765 1.5185964976370234 -7.082952918247465e-05
C 1.096766204631589 0.5150551434493468 -0.00010987286213217648
C 0.6992836300623236 -0.8688196669827539 -6.204762535713626e-05
O 1.4652879569716166 -1.832962217543528 -7.74252848171597e-05
N -0.6849860488538645 -1.0319753023065406 -3.0353993833949397e-05
C -1.6488150943562025 -0.041280532981603675 1.2202517338015498e-05
O -2.8534046426984285 -0.2835298973532538 9.477591390477755e-05
N -1.1394142906431608 1.2365794650374635 -3.612015236518105e-05
F 2.4174995244607738 0.7674461990631111 -0.00014409410247954828
H 0.4844769644871226 2.5640061869826063 -7.329740373697929e-05
H -1.031138976976992 -1.9862253736791462 8.41691027907364e-06
H -1.8090398851424148 1.9956426022550853 5.0074833821263034e-05
*
