! pbe def2-sv(p) def2/J RI DEFGRID1 loosescf d4 GCP(DFT/SV(P)) printgap
%output
    printlevel normal
end
* xyz 0 1
C 3.4953376716 2.0563324294 1.9382926519
C 2.3820601269 2.135755448 0.9149482367
O 2.4817620319 1.0865657484 -0.0687074894
P 2.2410448043 -0.4389977086 0.2720737828
S 0.9223457636 -0.8209162639 1.6810735187
O 3.7151718086 -0.9348503344 0.5971299989
C 3.9907506967 -2.1882964478 1.2443305299
C 3.6307940649 -3.3740393224 0.3723426737
S 1.8827863036 -1.1619552467 -1.6783675299
C 0.0812616761 -1.0141068039 -1.6916132125
S -0.4707601673 0.6863693933 -1.3454469335
P -2.3708009287 0.2136030903 -0.4734080655
S -2.5636603734 -1.5881975699 0.2560567895
O -3.4177757617 0.4573814783 -1.622957964
C -3.5290028175 1.6932126143 -2.3719317063
C -4.5854070264 2.597696367 -1.7714789397
O -2.6220539639 1.4506757723 0.4914608718
C -1.9618762921 1.5988130828 1.7638159448
C -2.8367169478 1.0714332933 2.8835105411
H 3.4434963483 2.9183959878 2.5958472783
H 3.386832431 1.1496955397 2.5325421354
H 4.4609542603 2.0359581315 1.4402064072
H 2.4343650152 3.0504220102 0.3233134775
H 1.4037553139 2.0630976491 1.4013179056
H 5.061712609 -2.1478340046 1.4473829065
H 3.4335239864 -2.2217687979 2.1863582811
H 4.0971970977 -3.2797466839 -0.6051499316
H 3.9700584608 -4.2880572881 0.8492475127
H 2.5503583577 -3.4267351383 0.2406850882
H -0.3553400194 -1.6703144694 -0.9325775775
H -0.2373715598 -1.304777029 -2.6898309063
H -2.5506947949 2.1820379326 -2.3935925298
H -3.8054165491 1.3733167711 -3.3781467791
H -4.6973414947 3.4765578686 -2.3987912978
H -5.5350475108 2.0727423854 -1.715785027
H -4.2957916637 2.904824092 -0.7704733267
H -1.0059141562 1.0683496782 1.7457731869
H -1.7863779168 2.6716904744 1.8637219937
H -3.7999040242 1.5736327947 2.8776191548
H -2.994852187 0.0020270816 2.7591369042
H -2.3421082461 1.2437627963 3.8339148833
*
