! pbe def2-sv(p) def2/J RI DEFGRID1 loosescf d4 GCP(DFT/SV(P)) printgap
%output
    printlevel normal
end
* xyz 0 1
C 5.4125466341 0.5075928072 -0.4713053696
C 4.7050684361 -0.8133621459 -0.6870297308
O 3.5044982344 -0.912955655 0.1064829715
P 2.2302569839 -0.0198968558 -0.1783149704
S 1.8924714011 0.3530135003 -2.0774640243
O 2.4912092464 1.2160462189 0.7849694013
C 1.6847319553 2.4099960706 0.7974616148
C 2.3045858899 3.4819433787 -0.0776500475
S 0.7912302643 -1.1621993233 0.8682291522
C -0.059513814 -1.9245600829 -0.5562474881
S -1.81230852 -2.2162099974 -0.2182746248
P -2.3822994552 -0.2360614222 0.2088997323
S -1.5122150669 1.2378858557 -0.7608309255
O -2.1994561565 -0.2358279623 1.7782851586
C -2.1121628159 0.9691299395 2.5715930508
C -1.0498562934 0.7697709446 3.6340256653
O -3.9679390792 -0.2365331035 0.0832607098
C -4.6549833781 0.0572109798 -1.1458587922
C -4.4160629121 -1.0032717932 -2.2010977898
H 6.358118799 0.5025368211 -1.0044036182
H 4.795524556 1.3208096378 -0.8511548294
H 5.5926020981 0.6679872953 0.5883802607
H 5.3083630926 -1.6583440196 -0.353131
H 4.4339974292 -0.9388637661 -1.7402149472
H 0.6721983216 2.1764344383 0.4573355826
H 1.6591366162 2.7160229015 1.8449842621
H 2.3140102646 3.1567907977 -1.1160872061
H 1.7130803797 4.3885739459 -0.0022114858
H 3.3228224556 3.6857310785 0.2420146517
H 0.3724866674 -2.9013123339 -0.7596003703
H 0.0494703954 -1.2569195978 -1.4161167924
H -1.8666212988 1.8096982508 1.9127390908
H -3.0962067837 1.1343071575 3.015253347
H -1.2967567342 -0.0930783843 4.245252494
H -0.0812356601 0.5979680962 3.1704107073
H -1.0002766319 1.6551633115 4.2593996929
H -5.7043922465 0.1061766499 -0.852504095
H -4.3211805658 1.0373402294 -1.5017024839
H -3.3744483003 -0.9840325191 -2.5200674281
H -4.6411462238 -1.9895043063 -1.8030813163
H -5.0494349387 -0.8052923361 -3.0599109794
*
