! pbe def2-sv(p) def2/J RI DEFGRID1 loosescf d4 GCP(DFT/SV(P)) printgap
%output
    printlevel normal
end
* xyz 0 1
C 3.5326824766 2.3021771753 1.6910935589
C 2.5954144813 1.9095501835 0.5679997009
O 1.7255493006 0.828390183 0.9915011865
P 1.9557224876 -0.6799979929 0.595205395
S 0.5646470599 -1.7789661082 1.4276957166
O 3.4652989018 -0.9116202789 1.0260677608
C 4.3095055356 -1.9793255699 0.5554990345
C 3.689772244 -3.3466662454 0.751458159
S 2.0708178931 -0.7570644472 -1.5367130386
C 0.303912075 -0.7137209837 -1.8671406814
S -0.4189622919 0.8960099937 -1.4057212818
P -2.323880806 0.2625109621 -0.6828061899
S -2.6172973725 -1.664158686 -0.5514477323
O -3.3606903162 0.9311976508 -1.6584861462
C -3.3724503317 2.3438691921 -1.9876485367
C -4.3175539521 3.1064436363 -1.082536346
O -2.5175321306 1.1095188717 0.6504956743
C -1.8463604178 0.7803011649 1.8790667287
C -2.4904248041 1.587019402 2.9872875325
H 2.9629198982 2.5857144958 2.5715413968
H 4.1801913814 1.4681490803 1.9482647269
H 4.1391125218 3.1428971254 1.3693159005
H 3.1482532469 1.5943678492 -0.3210062319
H 1.916531598 2.7230623036 0.3049178898
H 4.5263849647 -1.8008673396 -0.5012185719
H 5.219727519 -1.8669952119 1.1471643502
H 2.7901106458 -3.4430610331 0.1447080788
H 4.3994473645 -4.1119111143 0.4541145977
H 3.4154881459 -3.494116241 1.7935325617
H -0.2060905969 -1.4969349655 -1.2974472656
H 0.1859279577 -0.8643748403 -2.9373354893
H -2.3518253427 2.730954897 -1.9164737464
H -3.7063714764 2.3721772228 -3.0262751556
H -3.9742855738 3.0617481331 -0.0527243554
H -4.3567014819 4.1424709345 -1.4043047639
H -5.3132213136 2.67506659 -1.1377748063
H -1.9388608396 -0.2966232475 2.0555008203
H -0.78353817 1.0202779992 1.7733991444
H -2.00070464 1.3502484858 3.9260431052
H -2.3868613181 2.6488736176 2.7836154574
H -3.5456779708 1.3394386633 3.0608235458
*
