! pbe def2-sv(p) def2/J RI DEFGRID1 loosescf d4 GCP(DFT/SV(P)) printgap
%output
    printlevel normal
end
* xyz 0 1
C 4.9256753061 -0.8166261074 -1.1650996778
C 3.9273925567 -1.8385586778 -0.6635564999
O 3.0079613762 -1.2707846058 0.2906012924
P 1.9175930767 -0.188011852 -0.1081366662
S 1.20942815 -0.4246837282 -1.9222229729
O 2.6519444812 1.186541765 0.1791328948
C 2.4143047025 2.4305885204 -0.5018717148
C 3.74553741 3.1197142161 -0.723365367
S 0.7355561585 -0.4430913392 1.6284490573
C -0.1640072287 -1.9263452388 1.109289039
S -1.4887911966 -1.6239832763 -0.1151084765
P -2.0433041073 0.3938416986 0.3032919461
S -0.878234676 1.8892905044 -0.2040412608
O -2.3986615974 0.4637124824 1.8364970907
C -3.5665525928 -0.1235393165 2.4688167154
C -3.2908619518 -1.5267103714 2.9704534075
O -3.4692607146 0.4541837947 -0.3970769734
C -3.6395579877 0.8304674447 -1.7755989487
C -3.015392104 -0.1709773074 -2.7251888958
H 4.410362477 -0.0628184436 -1.7593631873
H 5.4189931387 -0.3303967608 -0.3274064149
H 5.6661002164 -1.3097161812 -1.7871231225
H 4.4129930935 -2.6425854614 -0.1090566785
H 3.349736392 -2.2510070231 -1.4970355798
H 1.9001485926 2.2260165513 -1.4473334435
H 1.7508969223 3.0303682571 0.1263133541
H 4.3734908052 2.5304251277 -1.3859830254
H 3.5662345676 4.0916685549 -1.1709405187
H 4.2556096009 3.2484956618 0.2268627917
H -0.6058406103 -2.3438100655 2.0109023442
H 0.5228457865 -2.6343131103 0.6481479663
H -3.7725793675 0.5578270195 3.2959356577
H -4.3953713383 -0.1078229905 1.7598237869
H -4.1414696131 -1.8589432589 3.5576976063
H -3.1498692436 -2.2126848564 2.1389272091
H -2.4043263882 -1.5281987634 3.5996694106
H -4.7224213243 0.8817363831 -1.897139696
H -3.199046867 1.8221557884 -1.9190253015
H -3.3747237153 -1.1744817052 -2.5108702931
H -3.2695956286 0.0946705157 -3.746171301
H -1.9296265143 -0.15961056 -2.6239297122
*
