! pbe def2-sv(p) def2/J RI DEFGRID1 loosescf d4 GCP(DFT/SV(P)) printgap
%output
    printlevel normal
end
* xyz 0 1
C 4.1935470539 -0.1413994714 -2.3479922223
C 4.3722207873 0.5981812084 -1.0377473402
O 3.689953752 -0.0493366222 0.0487946746
P 2.1058281112 -0.1494245018 0.131959374
S 1.1554103921 1.4826656876 -0.428850275
O 1.8858203607 -0.5917776103 1.6360222933
C 1.721828485 0.3550226569 2.7096178914
C 3.0199871691 1.0586009755 3.0457654215
S 1.6691342623 -1.9747521597 -0.8173957827
C -0.1009543713 -1.7379871006 -1.1270005822
S -1.0516595773 -1.3706546378 0.3797741768
P -2.1975223532 0.3050282635 -0.308855183
S -1.9809946159 0.8299878775 -2.1777181614
O -1.9084029324 1.4605422344 0.7211357126
C -2.1430872136 1.3169331021 2.1461680895
C -1.7276231237 2.614691933 2.8068980167
O -3.6909409842 -0.0817318563 0.1013051413
C -4.576820243 -0.8076052061 -0.7677948979
C -4.0817931629 -2.208491097 -1.0640368194
H 4.4606971575 -1.1886296475 -2.2305893295
H 3.1551142158 -0.0785780393 -2.6722576637
H 4.8247404293 0.3112360248 -3.1060711338
H 3.994552231 1.6225467799 -1.1214147368
H 5.4158716524 0.6106075354 -0.7206271411
H 0.9565694185 1.0806054662 2.4149531444
H 1.3609158836 -0.2521409728 3.5409874017
H 3.802932236 0.3286694541 3.2325549336
H 3.3233002253 1.6943719683 2.2150660299
H 2.8779655998 1.673303351 3.9291975796
H -0.4485888937 -2.6815662136 -1.5407989451
H -0.2532016609 -0.917283133 -1.8344830935
H -3.2032531932 1.1068807222 2.2995216849
H -1.5519730142 0.4684203389 2.5050202921
H -1.8315456126 2.5180165168 3.8826084385
H -0.6941011376 2.8457819506 2.5612895084
H -2.3526027549 3.4292847842 2.4526784022
H -5.5207089234 -0.8203034508 -0.2208778098
H -4.6901856053 -0.2377834906 -1.6950389736
H -3.8551480677 -2.7351873806 -0.1404649063
H -4.8481056549 -2.7492238055 -1.6100140659
H -3.1828982138 -2.1587559876 -1.6771985851
*
