! pbe def2-sv(p) def2/J RI DEFGRID1 loosescf d4 GCP(DFT/SV(P)) printgap
%output
    printlevel normal
end
* xyz 0 1
C 4.5465926158 -0.268623191 -2.0546879381
C 4.0963106358 -1.1654863939 -0.9216487937
O 3.5959931569 -0.4267025282 0.2111772225
P 2.4519431024 0.6721873677 0.1483594112
S 2.8883415065 2.4686659856 -0.4878235591
O 1.9830949165 0.7610713092 1.6500094994
C 1.6750047574 -0.3931818923 2.467025532
C 2.8491225553 -0.7389816777 3.3582638352
S 0.9022784339 -0.3127208936 -0.9272478037
C -0.0733105432 1.2014851578 -1.2163210021
S -1.7470635612 0.8123119257 -1.7571474443
P -2.3634059841 -0.07531649 0.0662208626
S -1.6642798233 0.6709506213 1.7301911588
O -2.0386199676 -1.6266111616 -0.0341165874
C -2.5022308142 -2.4369930336 -1.1437011789
C -1.335793754 -2.8525244751 -2.0166069506
O -3.9300036554 0.0966622304 -0.1809944814
C -4.8737603747 0.0947057795 0.9083080627
C -5.0337407262 -1.2879502619 1.5082999073
H 5.2794738133 0.4524252778 -1.7005246953
H 4.9866245029 -0.874069802 -2.8404693314
H 3.6973078359 0.2790566774 -2.4607778828
H 4.9301821916 -1.7348168285 -0.5073958281
H 3.308922187 -1.8461419998 -1.2567900615
H 0.8003165373 -0.0930388444 3.0484381899
H 1.4047072716 -1.2293552416 1.8154519034
H 3.7099549613 -1.0167720229 2.7556659927
H 3.1123515475 0.1191352662 3.9705424999
H 2.5739319202 -1.568589399 4.0017202797
H 0.3974907502 1.7876328518 -2.003177622
H -0.1144889385 1.7686938862 -0.283733404
H -2.9764054676 -3.3038944441 -0.6801922285
H -3.2430103762 -1.8701693773 -1.7149941768
H -0.8755682576 -1.9836236905 -2.4811683991
H -0.5853221307 -3.3601950793 -1.4180409866
H -1.6949080283 -3.5225299154 -2.791091881
H -4.5327517274 0.8070281339 1.6662067724
H -5.7996753558 0.4520229236 0.4556355788
H -5.3440212318 -1.9979506914 0.7460842883
H -4.0865945811 -1.615082647 1.9369686401
H -5.7826885991 -1.2539363379 2.2933536003
*
