! pbe def2-sv(p) def2/J RI DEFGRID1 loosescf d4 GCP(DFT/SV(P)) printgap
%output
    printlevel normal
end
* xyz 0 1
C 2.3519176364 2.695507183 -0.248040126
C 3.1803595465 2.0585026912 0.8481369611
O 3.3189688451 0.6403507302 0.6552187574
P 2.0805702008 -0.3518996446 0.7204499886
S 0.7794685747 0.0245031503 2.1432013182
O 2.7748131851 -1.7751528131 0.821663631
C 3.1134754552 -2.3780885004 2.0874083259
C 4.2392347046 -1.6408053732 2.7813658268
S 1.4189330577 -0.4880001789 -1.2741141228
C 0.1273852865 -1.7432892898 -0.9809725955
S -1.3780464288 -1.4616465329 -1.953558969
P -2.3183158742 0.0319744759 -0.7916098624
S -4.1224033716 0.5460677846 -1.3479639611
O -1.2818699089 1.2433933768 -0.6881132851
C -1.3509047522 2.3504202644 -1.603341657
C -0.8553788045 1.9724704769 -2.9847135828
O -2.1872079388 -0.6492480787 0.6350012531
C -3.0643012469 -0.2979461297 1.7249057192
C -2.8406279095 1.1213640493 2.1997592582
H 1.3310116255 2.3178994268 -0.1962770387
H 2.3401932024 3.772701752 -0.1157420839
H 2.7657177697 2.4534849592 -1.2239359223
H 2.7209731465 2.2321747882 1.8268723707
H 4.2074055705 2.4258710727 0.8483422334
H 2.2168731396 -2.3921510614 2.7161130135
H 3.3983478591 -3.3972154366 1.8230669089
H 3.9054190921 -0.6471278506 3.0771111417
H 4.536828514 -2.191071146 3.668539521
H 5.0903518866 -1.5411988569 2.1130402343
H -0.1291776509 -1.7436663223 0.0779331858
H 0.5032027169 -2.7111198742 -1.3025643086
H -2.3899987485 2.693321611 -1.649665625
H -0.7285663248 3.1201111696 -1.1450090621
H 0.1455686568 1.5509449005 -2.9291348246
H -1.5227907554 1.2328671389 -3.4267666376
H -0.8420059418 2.8561003791 -3.6142603619
H -4.0973051243 -0.4379661254 1.3911930305
H -2.8173490989 -1.0246356921 2.5000827604
H -3.4533210059 1.3075711663 3.0759489764
H -1.7930217418 1.2674552822 2.4532081162
H -3.1192647667 1.8227039971 1.4143231798
*
