! pbe def2-sv(p) def2/J RI DEFGRID1 loosescf d4 GCP(DFT/SV(P)) printgap
%output
    printlevel normal
end
* xyz 0 1
C 1.916961451 -3.3088779842 0.2410391552
C 2.8640067866 -2.8584293462 -0.8602446273
O 2.255933528 -1.8055788925 -1.6310681806
C 2.4379550548 -0.5598574755 -1.253625453
O 3.1644650038 -0.2060675102 -0.3489756663
C 1.5796483712 0.3973993813 -2.0599837262
C 0.3381672908 0.7208732532 -1.2218300612
H -0.2292753063 1.5357450744 -1.6763724457
C 0.7605000818 1.115091249 0.1847951498
O 0.6024353707 0.3853403242 1.1438011557
O 1.3078349076 2.2971235566 0.1966527566
C 1.8394590278 2.8107161112 1.4352549491
C 3.3571721294 2.7462665028 1.4071494368
S -0.7420065038 -0.7439193042 -1.0932382362
P -2.0368329991 -0.0164030476 0.4213472406
S -2.1420595157 1.9300939742 0.6080264971
O -3.4265281548 -0.690506567 -0.0084175782
C -4.1196054242 -0.2742366487 -1.1904169375
O -1.7899751189 -0.7770445661 1.7812429344
C -1.765071971 -2.2163371392 1.8632302311
H 2.3741579039 -4.1118408928 0.8092304114
H 1.7051360391 -2.4767303097 0.9115843979
H 0.9847650627 -3.6580440331 -0.1952675702
H 3.0506685719 -3.6571772696 -1.5777510618
H 3.8045503612 -2.4890771058 -0.4415427064
H 1.2822092267 -0.0698400546 -2.9972058723
H 2.1313619427 1.321007786 -2.2345297217
H 1.4776254397 3.838574776 1.4937492597
H 1.4282192368 2.2206358225 2.2589762533
H 3.7483599713 3.094149812 2.357196184
H 3.6794060078 1.7208099249 1.2379333117
H 3.7431139795 3.3705651554 0.6068547173
H -5.1020177296 -0.7350447753 -1.1297059594
H -3.5842027941 -0.6207140942 -2.07407012
H -4.2083062107 0.8130550046 -1.2079481015
H -1.4321450673 -2.436178549 2.8740475403
H -1.0628583844 -2.6183868783 1.1329003821
H -2.7633466054 -2.6107414117 1.6831313335
*
