! r2scan-3c def2/J RI DEFGRID2 scfconv6 printgap
%output
    printlevel normal
end
* xyz 0 1
C 5.2911175517 -0.1068765318 -0.0640892179
C 4.2415846411 -1.0080025926 -0.6801570294
O 3.1050663215 -0.2650338409 -1.1750287223
P 2.1220816463 0.5678783001 -0.2484467255
S 2.6599794566 2.3301122011 0.417136276
O 1.7886768221 -0.4965620209 0.8871433885
C 1.4019919577 -0.1662140196 2.2298068041
C 2.2632334548 -0.9629802473 3.1898387734
S 0.4910706019 0.6708417672 -1.5823749916
C 0.0567256886 -1.0875761781 -1.7244487713
S -0.731667475 -1.7756196086 -0.2375571406
P -2.2279524559 -0.3173550959 -0.0124238327
S -3.091305861 0.39971667 -1.6251173052
O -1.446030563 0.7016778462 0.9265081878
C -2.0038992994 1.9864012959 1.2830336712
C -1.4145372489 3.0858504848 0.4220406628
O -3.2495808627 -0.9432755571 1.0347094231
C -4.3987226158 -1.7074728858 0.6270885518
C -4.0058392891 -3.0420056312 0.0275536247
H 5.6059543986 0.6503469337 -0.7781650849
H 4.8872748376 0.3986771683 0.8120519618
H 6.1496984461 -0.7015548923 0.231721182
H 3.8837623147 -1.7440917786 0.0432822397
H 4.6218759386 -1.5126304554 -1.5699179708
H 1.5304136485 0.9114791991 2.3795377095
H 0.3455513564 -0.4251537201 2.3330328498
H 2.1618059125 -2.025011728 2.9850057153
H 3.306812279 -0.6769445263 3.0850101772
H 1.9406552059 -0.761086984 4.205928945
H 0.9477942184 -1.6799736279 -1.9140660226
H -0.6413606266 -1.1414235516 -2.5584194164
H -3.0915243776 1.9469718829 1.1760851994
H -1.7429867828 2.1217775156 2.3340551884
H -1.6763186124 2.9306124584 -0.6228633899
H -1.8038668251 4.0448559987 0.7479398116
H -0.3296317007 3.095217336 0.5072565389
H -4.9720521332 -1.8290320173 1.5469521074
H -4.9695649404 -1.1142206746 -0.0944123824
H -3.348189856 -3.5815536504 0.7042136487
H -4.8991069238 -3.630484452 -0.1554360417
H -3.4864357712 -2.8853418251 -0.9168965375
*
