! pbe def2-sv(p) def2/J RI DEFGRID1 loosescf d4 GCP(DFT/SV(P)) printgap
%output
    printlevel normal
end
* xyz 0 1
C 5.1793709578 0.8002342038 -0.2462958095
C 3.8914918034 1.1071351862 -0.9807618008
O 2.9978735481 -0.0257597052 -0.984697229
P 2.2800067098 -0.5249624568 0.3344190677
S 1.8820516074 0.8485625814 1.6844281982
O 3.266461488 -1.655518373 0.858514842
C 3.1524267887 -2.2150422848 2.1774511479
C 1.8857979294 -3.0319402726 2.3308540864
S 0.6920550008 -1.6250647595 -0.5420295814
C 0.1754742137 -0.4515342075 -1.8273710412
S -0.2982515791 1.1757228738 -1.1874600827
P -2.3042630869 0.7412048996 -0.6447819629
S -3.0811293273 -0.8223736407 -1.5468557342
O -2.929549482 2.141016438 -1.0324144863
C -4.0813922538 2.7254950444 -0.3854867924
C -5.3054468799 1.8392478874 -0.4848898569
O -2.4031588484 0.8025059004 0.9429668493
C -1.7964931105 -0.0759510267 1.9045542524
C -2.2483617831 -1.5159819359 1.7725880774
H 5.8642308138 1.6352892003 -0.3554989083
H 4.9737535052 0.6468397223 0.8123368958
H 5.6357231463 -0.0999013433 -0.649571401
H 4.0651188234 1.308188325 -2.0386901613
H 3.3734105112 1.9558334214 -0.5224000121
H 4.0475221296 -2.8290841976 2.2829722976
H 3.1723191804 -1.395759801 2.9038933581
H 1.0158145287 -2.3820689276 2.2353048762
H 1.8321575846 -3.7965332283 1.5602709327
H 1.8720838757 -3.5008000346 3.3093819844
H -0.6883113729 -0.9103984049 -2.3149457637
H 0.9928377722 -0.2975956916 -2.5258746818
H -3.8263356365 2.9257412263 0.6573418111
H -4.2215485856 3.6656144736 -0.9216525036
H -6.1578365425 2.3484495731 -0.0462937396
H -5.5199913056 1.6056652948 -1.5252684825
H -5.1332723476 0.9054062883 0.0489604055
H -0.7087161755 0.0087145181 1.8176629825
H -2.1071350979 0.3492728997 2.8612548878
H -1.8696399254 -2.0827676715 2.6173387481
H -3.3341225052 -1.5708660012 1.7638877917
H -1.8700423802 -1.9594830639 0.8536268225
*
