! pbe def2-sv(p) def2/J RI DEFGRID1 loosescf d4 GCP(DFT/SV(P)) printgap
%output
    printlevel normal
end
* xyz 0 1
C -1.2683820958 0.7009557822 -0.0025152548
C 0.0040302769 -0.0992238131 -0.0011027176
O -3.89174e-05 -1.3164095524 0.0001727972
C 1.2704593501 0.7022644587 0.0026988098
H -1.8322445517 0.4646747209 0.8978548013
H -1.0746697246 1.7664880035 -0.0486486389
H -1.8804278901 0.3941825985 -0.8479000493
H 1.2981046556 1.328090378 -0.8861817049
H 2.138212956 0.0486322488 0.0210027712
H 1.2788642721 1.3552040519 0.872082795
*
