! pbe def2-sv(p) def2/J RI DEFGRID1 loosescf d4 GCP(DFT/SV(P)) printgap
%output
    printlevel normal
end
* xyz 0 1
C 2.1208131296 2.3099584214 1.7336475005
C 1.2874896588 1.1593612602 2.2556734841
O 1.8264749777 -0.1464484512 1.936478402
P 2.4011428942 -0.6821016767 0.5731747269
S 2.5457885136 -2.6310309804 0.690543275
O 3.7514142962 0.1380038036 0.4232123712
C 4.5061520758 0.294679794 -0.7922661743
C 4.8680535562 -1.02661183 -1.4374067205
S 1.1888439397 0.0511360386 -1.0293197426
C 0.008323661 -1.3124255288 -1.0195563514
S -1.1327963292 -1.2471808024 0.3894571975
P -2.2719164736 0.3829445206 -0.3366399742
S -2.64674995 0.4197899316 -2.2638293376
O -1.4048982019 1.5840273991 0.2259044381
C -1.4575883553 2.9065488058 -0.3515947058
C -2.7813174706 3.5852260589 -0.0711546945
O -3.5463135313 0.4327787237 0.6094939969
C -4.7653411313 -0.2634153716 0.2988207344
C -4.5994824429 -1.7674317971 0.3759730155
H 1.7071454222 3.2401730878 2.1119571717
H 3.1496754854 2.2132782295 2.0704768429
H 2.1042454133 2.3304170773 0.6453404035
H 0.268384958 1.2022193648 1.8617734572
H 1.2547894187 1.1512444374 3.346588941
H 3.9209908644 0.9116811189 -1.4799996852
H 5.3969683095 0.8378346265 -0.4719263232
H 5.3853670932 -1.6669491216 -0.7268777585
H 3.9689186187 -1.5428622531 -1.7706217348
H 5.5100733272 -0.8459261941 -2.2935307722
H 0.5505702919 -2.255750942 -0.9375714724
H -0.5583146996 -1.2520859915 -1.9489699851
H -0.6240729212 3.4310238199 0.1169647802
H -1.28379078 2.8197176552 -1.4287103961
H -2.9865728755 3.5831419747 0.996087563
H -2.745384342 4.6082425838 -0.4321443869
H -3.5839949722 3.0572164009 -0.5846184349
H -5.4736415124 0.1027506823 1.0431424638
H -5.088417301 0.0352871731 -0.7037001481
H -3.9318185673 -2.1105737351 -0.413714159
H -4.1780135913 -2.0534175423 1.33664247
H -5.5664074026 -2.2439251017 0.2498948156
*
