! pbe def2-sv(p) def2/J RI DEFGRID1 loosescf d4 GCP(DFT/SV(P)) printgap
%output
    printlevel normal
end
* xyz 0 1
C 1.5947749393 0.1682222962 3.1246669602
C 2.1367459726 0.9906089787 1.9729944352
O 3.0418742205 0.2486932366 1.1394356196
P 2.634949834 -0.9427290314 0.1655856927
S 2.2086688251 -2.6594496753 1.0062727829
O 3.9282333304 -1.099833315 -0.7142662093
C 4.3720060814 -0.2327683017 -1.7866265513
C 4.4316491032 1.2273232055 -1.3939512483
S 1.1295849563 -0.1419870673 -1.1333425581
C -0.2700249952 -1.1300685489 -0.5527317426
S -1.2014897369 -0.3117381422 0.7681031942
P -2.5923554068 0.6908306533 -0.5050255367
S -1.9295997286 1.3707633812 -2.2140125273
O -3.2808883611 1.7460378438 0.4644927833
C -2.7762647931 3.084024351 0.6390543142
C -1.3512786973 3.0999342758 1.1520665368
O -3.7483365368 -0.3602796774 -0.7314953173
C -4.4721719069 -0.9937238042 0.3564936735
C -4.1453740205 -2.4731305405 0.4036292396
H 2.4122400985 -0.2856744111 3.6788145599
H 1.0247863866 0.8116986813 3.7867950401
H 0.9438020062 -0.6230650283 2.7569688019
H 2.7429986657 1.8239445914 2.3325719037
H 1.3201116834 1.3717744198 1.3523858235
H 5.3614755045 -0.6254708786 -2.0263866811
H 3.6999621841 -0.3791354612 -2.6361656032
H 4.8858986494 1.7904446393 -2.2035755247
H 3.4288846669 1.6129234047 -1.2192653534
H 5.0246694555 1.3511570524 -0.4916956626
H 0.1115905717 -2.0716332657 -0.1501671094
H -0.9245509591 -1.2924472474 -1.4070262346
H -2.8435456291 3.6023282765 -0.321870675
H -3.4698837992 3.530163008 1.3531187907
H -0.6853389497 2.6971766404 0.3889351044
H -1.0582683261 4.1223752541 1.3672996103
H -1.2657293035 2.4998047497 2.054894561
H -4.2154185968 -0.4979966598 1.2948527732
H -5.5260199762 -0.826994356 0.1294548611
H -4.3304005845 -2.9267277824 -0.5663181649
H -3.1030710155 -2.628997531 0.67260605
H -4.7750066338 -2.9512959881 1.1471994566
*
