! pbe def2-sv(p) def2/J RI DEFGRID1 loosescf d4 GCP(DFT/SV(P)) printgap
%output
    printlevel normal
end
* xyz 0 1
C 5.1270305879 -2.9806019275 -0.9086939014
C 4.5260540107 -1.8838900553 -0.0434473511
O 3.0869779947 -1.9125537645 -0.0929775892
C 2.4840283626 -1.2834175705 -1.0786338278
O 3.0483922262 -0.6921567887 -1.9746753034
C 0.9739278028 -1.4146089531 -0.9817702166
C 0.3568147535 -0.0599451671 -1.3040056538
H 0.7127809165 0.2603091793 -2.2918534341
C 0.8345077664 1.0005156923 -0.3290387404
O 1.9095088373 0.9292085111 0.22029739
O 0.007603527 2.0247686378 -0.2488087282
C 0.4361624028 3.1872051504 0.4940599988
C 0.219910016 3.0333168738 1.9890994043
S -1.4498283848 -0.1075225424 -1.4675408588
P -2.0524603972 0.1048672108 0.5614913052
S -0.7847598822 -0.4499790988 1.9481014252
O -2.5891586233 1.5748098906 0.7712327273
C -3.5734256878 2.1622571388 -0.1037840227
O -3.4330915845 -0.7038250652 0.5658689484
C -3.4606232899 -2.131193988 0.4538435673
H 4.7365838144 -3.9488765422 -0.6080719583
H 4.8828429109 -2.806247796 -1.9539616243
H 6.2057132247 -2.9763577932 -0.7927023592
H 4.8616365423 -0.8963967674 -0.3731806421
H 4.7621071597 -2.0304998733 1.0105993649
H 0.7139337895 -1.7472715731 0.0237547759
H 0.6399570464 -2.15125986 -1.7139700756
H 1.4955566474 3.3499108905 0.2759082379
H -0.169948039 3.9952634773 0.0843155117
H 0.8258792969 2.2162229495 2.3757173237
H 0.5090299425 3.9535361525 2.4856059477
H -0.8245884641 2.8195707397 2.2023860827
H -3.2085984299 2.152444347 -1.1307009493
H -3.6980837175 3.1815490993 0.251923394
H -4.5082127907 1.6101814604 -0.0328901205
H -3.2183267785 -2.4265885076 -0.5665882824
H -4.4759775667 -2.4249319233 0.7074347147
H -2.7504641541 -2.5765266265 1.1521990368
*
