! r2scan-3c def2/J RI DEFGRID2 scfconv6 printgap
%output
    printlevel normal
end
* xyz 0 1
C -1.1457948801 1.2842645787 -1.0089813273
C -1.0079716988 0.1387742694 -0.0091495377
C -1.8058056351 -1.0831972329 -0.4789949009
C -1.5000480953 0.5783335248 1.3770040574
C 0.4404036152 -0.2969997822 0.1630761485
O 0.7790498423 -1.2530772519 0.8325600864
O 1.3009772418 0.4747144334 -0.4830361684
C 2.6947438172 0.1707106131 -0.3834536417
H -0.7701883671 0.9896615673 -1.9852030286
H -2.1940549986 1.5540484103 -1.1044747676
H -0.5886250153 2.1557293215 -0.6765615944
H -1.6416873675 -1.9177031274 0.1986865754
H -1.4930167997 -1.3820232271 -1.4767858264
H -2.8655590999 -0.8465406725 -0.5000079353
H -1.3531334125 -0.2235423616 2.096771306
H -0.9526253328 1.4545982878 1.7164718337
H -2.5574127811 0.8224341676 1.3303673255
H 2.8337776583 -0.9029162396 -0.2505300436
H 3.1182774627 0.7001577597 0.4701047813
H 3.1463180976 0.5150322012 -1.3094994684
*
