! pbe def2-sv(p) def2/J RI DEFGRID1 loosescf d4 GCP(DFT/SV(P)) printgap
%output
    printlevel normal
end
* xyz 0 1
C 5.2215431785 -2.395680841 -1.724828501
C 4.1279902015 -1.3515062948 -1.8199916247
O 3.5425002471 -1.2086770209 -0.5086746793
P 2.6166609956 0.0270408088 -0.1437774351
S 3.3500228798 1.8073709728 -0.4869349281
O 2.3205267692 -0.202096971 1.3798654091
C 1.8265592586 -1.4576666496 1.9216372691
C 1.0780451448 -1.1424668432 3.1998776894
S 0.8151003336 -0.4110269987 -1.2118936217
C 0.0083372413 1.1665772225 -0.8568118005
S -0.8876918656 1.146997056 0.7087577282
P -2.6962750398 0.336811877 -0.1037255
S -3.2569465216 1.1086870825 -1.8128286083
O -3.6916511927 0.3792671203 1.132268247
C -3.956854491 1.531783954 1.9539885602
C -4.4020699386 2.7345526434 1.149287053
O -2.4749876049 -1.2089986251 -0.284917642
C -2.0840728274 -2.1008198805 0.792152246
C -1.3938964201 -3.2975178027 0.1707200382
H 5.6728842704 -2.528040249 -2.7025435965
H 5.9826447677 -2.074830933 -1.019236054
H 4.8044780135 -3.3406320579 -1.3896278722
H 3.3400588396 -1.6570092135 -2.5136866055
H 4.5232381738 -0.3797612001 -2.1331777808
H 1.1802733626 -1.9293511441 1.1762655624
H 2.6909294999 -2.0974733859 2.1051400707
H 0.2622272267 -0.4526655037 2.9968943675
H 0.6832811746 -2.061929337 3.6199621978
H 1.7476308306 -0.6767568107 3.916864749
H -0.6997753879 1.3688750029 -1.6631994991
H 0.7716910203 1.9446299178 -0.7979239529
H -4.7431996598 1.189056019 2.6287616916
H -3.0510532724 1.7609397189 2.5220546104
H -4.6671697603 3.5428370555 1.8232266425
H -3.5979933232 3.0684562905 0.4945693677
H -5.2618343488 2.4822534477 0.5330005646
H -1.4212083225 -1.5588011432 1.4724846428
H -2.9907695212 -2.3892975111 1.3263953599
H -2.0761500639 -3.8126001738 -0.4990696316
H -0.529340674 -2.9749897785 -0.4048404648
H -1.0778807058 -3.9769216299 0.9557504241
*
