! pbe def2-sv(p) def2/J RI DEFGRID1 loosescf d4 GCP(DFT/SV(P)) printgap
%output
    printlevel normal
end
* xyz 0 1
C 5.75880254 0.6470072138 -0.8229242855
C 4.3400883504 0.2279422018 -1.1504121099
O 3.4500230122 0.8787634689 -0.2083348117
P 2.1260976164 0.199536778 0.3362597975
S 1.3394270282 1.3260874191 1.7214343497
O 2.4868655305 -1.2938505709 0.7755322441
C 2.7168684753 -1.6382127076 2.1571234888
C 4.0739387588 -1.15191673 2.6218893414
S 1.065422235 -0.2235213643 -1.454283399
C 0.0165718898 -1.5872988429 -0.86358267
S -1.0696067218 -1.1303175957 0.5024227872
P -2.40906017 0.0847158683 -0.6378877476
S -2.6183630472 -0.4361406305 -2.5101538764
O -1.8882111161 1.5712653798 -0.56709432
C -1.8190650447 2.3544675911 0.6474292128
C -3.0288716907 3.25702052 0.7652836615
O -3.6975700067 0.1395968317 0.287860555
C -4.3531889735 -1.0050278037 0.8679580624
C -4.7253810416 -2.0528958954 -0.1593276765
H 6.4358371831 0.2054473704 -1.5471312813
H 5.8435430336 1.7291399717 -0.8641091162
H 6.0315653578 0.3144473218 0.1749095121
H 4.2124783069 -0.8544741907 -1.0704496071
H 4.047129747 0.5533162963 -2.151088559
H 1.9192997203 -1.1984693764 2.7636961977
H 2.6435663228 -2.7262383312 2.1776251292
H 4.8612390115 -1.5737832674 2.0023236742
H 4.1134224249 -0.0645448685 2.5591724305
H 4.2299092106 -1.4507499701 3.6535516421
H 0.6407530001 -2.4062789673 -0.5177549128
H -0.589745863 -1.8767511227 -1.7240332726
H -1.731810096 1.684200605 1.5068710423
H -0.8960219503 2.930852381 0.556384411
H -3.1024816602 3.8932152469 -0.1124972311
H -3.935394712 2.6628768368 0.8453882419
H -2.921831509 3.8753781662 1.6508419462
H -3.6913652037 -1.4262922549 1.6298259983
H -5.2391058595 -0.5786907086 1.3418780067
H -5.3229310797 -1.6107727717 -0.9529631845
H -3.8277977481 -2.4798271968 -0.6041666544
H -5.2930197932 -2.8426034331 0.3221293684
*
