! r2scan-3c def2/J RI DEFGRID2 scfconv6 printgap
%output
    printlevel normal
end
* xyz 0 1
C 4.5027805834 -1.1798992697 -2.4023341151
C 3.7990045802 -2.1307833756 -1.4574841706
O 3.420677689 -1.5061378228 -0.2155565386
P 2.5495420871 -0.1848840666 -0.0731136245
S 3.3979516081 1.5472927462 -0.3974402679
O 2.0983894132 -0.2755593634 1.432676097
C 1.4895796282 -1.4569152027 2.0134630782
C 0.5917860693 -1.0131178373 3.1497044502
S 0.8406682233 -0.6134292867 -1.2834050299
C 0.2070684182 1.074956045 -1.3007879864
S -0.4527858563 1.5871759032 0.3082148162
P -2.2602843342 0.5016453408 0.1665171981
S -3.1346789945 0.5345058679 -1.5929250751
O -3.1054860463 1.0548235578 1.3943080812
C -3.7504661404 2.3446221769 1.3718612501
C -5.2010600131 2.2110657494 0.9503776304
O -1.8552659609 -0.9267672777 0.7026413135
C -2.5907123771 -2.1285290043 0.3661196391
C -1.6085561296 -3.2480504419 0.08900986
H 4.8389548899 -1.7248682994 -3.2785000495
H 3.8232504186 -0.388487973 -2.7154655124
H 5.3582808551 -0.7211091469 -1.9123110146
H 4.4571713508 -2.9429201851 -1.1439451504
H 2.8969521094 -2.5392905478 -1.9211405699
H 0.9225387265 -1.9774671176 1.2363114915
H 2.2988692775 -2.0991177041 2.3656550744
H -0.2339731006 -0.4163172984 2.7688519975
H 0.1956785527 -1.8882150351 3.6549320541
H 1.1580825927 -0.4130577108 3.8562181542
H -0.5862852412 1.1158833581 -2.0482483754
H 1.0213449501 1.7606185982 -1.5386282929
H -3.6646785608 2.7144352772 2.3952615847
H -3.20453039 3.01107958 0.6980000723
H -5.6796648184 3.1836261895 1.0023952762
H -5.2642785478 1.8391485579 -0.0699481777
H -5.718113974 1.5189987284 1.6089521316
H -3.2315879585 -2.3581199238 1.2193661186
H -3.2130181622 -1.9243860763 -0.5116788683
H -0.9557606178 -2.9764404324 -0.7373027833
H -1.0069276839 -3.4480749525 0.9709692275
H -2.1625621625 -4.1430608351 -0.1751669392
*
