! r2scan-3c def2/J RI DEFGRID2 scfconv6 printgap
%output
    printlevel normal
end
%cpcm
    smd true
    smdsolvent "water"
end
* xyz 0 1
C 5.4252004639 -1.2646158468 -0.6668413583
C 4.1605625485 -2.0996921938 -0.7003753634
O 3.0452535319 -1.3689532499 -1.2540710576
P 2.2496630105 -0.2529030999 -0.4602909428
S 3.0659034371 1.5115167436 -0.183439298
O 1.8349353509 -0.9995660725 0.8888441624
C 1.8572508892 -0.3990812114 2.1959553911
C 3.0698749235 -0.881916698 2.9666023859
S 0.5574874946 -0.3010044901 -1.7205573431
C -0.1629999318 1.2640552987 -1.1461422794
S -0.7242430236 1.1854450218 0.5732470918
P -2.6212913288 0.2468800425 0.258231243
S -3.3410929943 0.4001114628 -1.5644419901
O -3.551022759 0.8322762264 1.3924849251
C -4.3743068229 1.9918661561 1.177565983
C -3.5529787999 3.262127871 1.0787567657
O -2.4997463736 -1.1886115318 0.9156364577
C -1.5819819891 -2.2257459229 0.5347417821
C -1.9383803303 -2.8539271957 -0.7982494359
H 6.2475239815 -1.8713719153 -0.3009467252
H 5.6618341846 -0.9014206452 -1.6635940617
H 5.2971039616 -0.4049534046 -0.0113134673
H 3.890228718 -2.4473233919 0.299959871
H 4.2666443933 -2.9540244765 -1.3711903772
H 1.8717958761 0.6901887887 2.0902680439
H 0.9253068816 -0.7035015898 2.6755200425
H 3.9806002744 -0.5406656394 2.4786842972
H 3.0361386985 -0.4748579587 3.9718694858
H 3.0773337001 -1.9671619192 3.0195283249
H -1.0123313633 1.4744642962 -1.797605844
H 0.5895296244 2.0504147038 -1.1967838815
H -4.9617517971 1.8406439062 0.2659975898
H -5.0352525971 2.0072742622 2.045161394
H -4.2184281552 4.1190343458 1.0518795609
H -2.8869926767 3.3481083852 1.9335678897
H -2.9563552792 3.2513915794 0.1676383222
H -0.5647518698 -1.8221496204 0.5120380828
H -1.6656399735 -2.950695269 1.3469988795
H -1.2871370159 -3.7031471698 -0.9786591295
H -2.9730284436 -3.1868897031 -0.7901622633
H -1.8079675243 -2.1367534731 -1.6067638281
*
