! pbe def2-sv(p) def2/J RI DEFGRID1 loosescf d4 GCP(DFT/SV(P)) printgap
%output
    printlevel normal
end
* xyz 0 1
C 4.3624642016 -0.4960344105 -2.6965775818
C 4.1008656106 -1.3121174984 -1.4449298728
O 3.7056835393 -0.4806476426 -0.3390266001
P 2.1972477773 -0.0563344566 -0.0429567215
S 1.3404984707 1.0582305561 -1.4168575496
O 2.3920698633 0.5699291312 1.3904808465
C 2.4848903868 1.9894724372 1.6111971389
C 3.7917479538 2.5434985135 1.0854313337
S 1.262993759 -1.9066351729 0.3720420126
C -0.0616458585 -1.8968459601 -0.8881863788
S -1.7384912542 -1.929048964 -0.2086628947
P -1.9703880862 0.1168139517 0.3408854361
S -0.7676082974 0.8306437756 1.7103901771
O -3.5059944513 0.1494726542 0.7416294232
C -3.9721414777 -0.4487917717 1.968541902
C -5.3625296099 0.0847158265 2.247113935
O -1.9141071301 0.9480253752 -0.9890928514
C -2.7467114547 0.6935907931 -2.1502526065
C -3.9868715952 1.5619140688 -2.1214440082
H 3.4545228399 0.0088268173 -3.0184899877
H 5.1257478979 0.2522099464 -2.5016687292
H 4.7018724196 -1.1565096886 -3.4878585481
H 5.0113314442 -1.8032644307 -1.0958863782
H 3.3266157989 -2.0662446497 -1.6190118435
H 1.627217563 2.4756131586 1.1340139617
H 2.3955938664 2.0914471394 2.6934910605
H 3.8306936007 2.4245328509 0.002877752
H 3.86090866 3.5986510261 1.3301833128
H 4.6280844212 2.0089368555 1.5278034745
H 0.0307923447 -2.8112491456 -1.4677950831
H 0.0642316295 -1.0074740345 -1.5134133864
H -3.9778950645 -1.5339623004 1.8362845127
H -3.2725867052 -0.1887075429 2.769888542
H -6.0302390337 -0.1722005882 1.430007896
H -5.7339333926 -0.3558944295 3.1663799453
H -5.3329071447 1.165460493 2.354202907
H -2.1028486648 0.9415858124 -2.9965492414
H -3.0072335158 -0.3680987653 -2.1741623275
H -4.6053336464 1.3066054868 -1.265316387
H -3.7061697232 2.6092964089 -2.0516676148
H -4.5514461183 1.4016989914 -3.0346412806
*
