  12
        -23.98554112
 C         -2.4705976478        0.6925551779        0.0000165838
 C         -2.4706218508       -0.6924942550       -0.0000344103
 C         -1.2745226533       -1.3891470971       -0.0000004055
 C         -0.0754626155       -0.6946503320        0.0000081043
 C         -0.0754313468        0.6946540234       -0.0000204816
 C         -1.2744669737        1.3891880050        0.0000189619
 Cl         1.4268297377        1.5658424393       -0.0000042218
 Cl         1.4267743999       -1.5658817467        0.0000048350
 H         -3.4008538406        1.2366376444       -0.0000144903
 H         -3.4008912039       -1.2365598734        0.0000786058
 H         -1.2588639543       -2.4664973166        0.0000044254
 H         -1.2587663678        2.4665447168        0.0000486806
