! pbe def2-sv(p) def2/J RI DEFGRID1 loosescf d4 GCP(DFT/SV(P)) printgap
%output
    printlevel normal
end
* xyz 0 1
C 5.0062972064 1.4795595421 -0.2971390285
C 4.8275101878 0.013892185 -0.634333916
O 3.7223860642 -0.5912786554 0.0632459391
P 2.2363507641 -0.0320867122 0.0864187975
S 1.8721191071 1.4135283982 1.3653883306
O 1.3954297532 -1.353366297 0.3489153142
C 1.0552029422 -1.7964436479 1.6723401264
C 2.2489927933 -2.4141292187 2.367901593
S 1.8221751412 0.3377743318 -1.9468837936
C 0.0919559117 0.8260624122 -1.7776829449
S -0.9920013089 -0.6502847274 -1.6685128776
P -2.2742518364 -0.1448210903 -0.0821936688
S -3.4450705541 -1.6185703808 0.4621699473
O -3.0392298099 1.1977833396 -0.4908420526
C -4.3153941867 1.1639700101 -1.1504001298
C -4.1884580102 0.7352907421 -2.5981393974
O -1.2225449591 0.4203093334 0.9649855593
C -1.5993641728 1.2743315944 2.0711198803
C -2.3043735555 0.5064827328 3.1689015867
H 5.1029261054 1.6139965084 0.7778073811
H 5.8989392265 1.8546156321 -0.7872774434
H 4.1456730385 2.0515787629 -0.6417783781
H 5.6866081254 -0.5779948527 -0.3136970973
H 4.6643501097 -0.1193101721 -1.7073039667
H 0.6749802873 -0.9397158079 2.2391302368
H 0.249079267 -2.5168351749 1.5168856414
H 1.9440285992 -2.7987067528 3.3361035152
H 2.6549588876 -3.2229419369 1.7664637145
H 3.0206110008 -1.6580183013 2.5081730487
H -0.1628642784 1.3740319027 -2.6803607885
H -0.0299658197 1.4344875033 -0.8824448032
H -4.9693072708 0.4773528234 -0.6031394598
H -4.6882871694 2.185277074 -1.0615898058
H -5.1618927307 0.7906235892 -3.0745688648
H -3.492236599 1.3807418481 -3.1269968194
H -3.8278669236 -0.2916201599 -2.6504025089
H -0.6458718526 1.6843690498 2.413152456
H -2.2276753645 2.0806030916 1.6878846601
H -3.2473321059 0.1024880294 2.8049210042
H -1.6855507549 -0.3185505475 3.5131777153
H -2.500614583 1.1769907258 3.999519563
*
