! r2scan-3c def2/J RI DEFGRID2 scfconv6 printgap
%output
    printlevel normal
end
%cpcm
    smd true
    smdsolvent "water"
end
* xyz 0 1
C -2.2191355052 1.9031e-06 1.23823e-05
C -1.5289140383 -1.2029662795 2.84199e-05
C -0.147179665 -1.2115980123 -3.19689e-05
C 0.5470669236 -2.3359e-06 -6.8967e-05
C -0.147176794 1.2115964161 -2.31422e-05
C -1.528912121 1.2029688156 3.69949e-05
C 1.9577297159 -5.4071e-06 -1.94874e-05
N 3.1066836932 3.9142e-06 6.29874e-05
H -3.2979478421 2.8046e-06 3.64308e-05
H -2.0687436535 -2.1369449172 8.62524e-05
H 0.4024314629 -2.1406715344 -9.17135e-05
H 0.4024357506 2.1406689863 -0.0001256777
H -2.0687408389 2.1369486584 3.1161e-06
*
