  20
  -28.9158373500000       0.500010581948349      !md2
 C         -2.7343761848       -0.2589889998       -0.0034663967
 C         -2.3498618793        1.0886395445        0.0090613893
 C         -1.0244694275        1.4286899192        0.0092554747
 C         -0.0147096854        0.4449387085       -0.0035827836
 C         -0.4064886185       -0.9215751624       -0.0056431553
 C         -1.7819656460       -1.2380132301       -0.0085899914
 C          0.5731802169       -1.9345243544        0.0007113190
 C          1.9009255361       -1.6049974036        0.0101093285
 C          2.3017495069       -0.2690166223       -0.0002066182
 C          1.3795224947        0.7617824148       -0.0120937245
 N          1.8114898811        2.0641483646        0.0350284932
 H         -3.7837402916       -0.5149639618       -0.0052890575
 H         -3.1076875513        1.8579906184        0.0205719958
 H         -0.7575533725        2.4743673461        0.0331361760
 H         -2.0669261824       -2.2807919578       -0.0123939929
 H          0.2574451770       -2.9674207916        0.0005862903
 H          2.6547718276       -2.3791303628        0.0172126376
 H          3.3561164619       -0.0318981132       -0.0001965356
 H          2.7834193709        2.2095090940       -0.1819465939
 H          1.1886613128        2.7757145022       -0.3054965761
  20
  -28.9158373100000       0.499989418051651      !mtd7
 C         -2.7343800399       -0.2590308778       -0.0032132305
 C         -2.3498927664        1.0886469148        0.0088863053
 C         -1.0245232716        1.4287464642        0.0089945649
 C         -0.0147120074        0.4449772065       -0.0037057433
 C         -0.4064889751       -0.9215168153       -0.0057245409
 C         -1.7819667846       -1.2380780340       -0.0083583537
 C          0.5731747881       -1.9344890174        0.0004888593
 C          1.9009309343       -1.6050163874        0.0100421416
 C          2.3017622200       -0.2690376584       -0.0000778028
 C          1.3795522125        0.7617944888       -0.0120835131
 N          1.8115163276        2.0640838281        0.0352160236
 H         -3.7837820334       -0.5149779517       -0.0047209557
 H         -3.1077881888        1.8579378893        0.0199050827
 H         -0.7576726708        2.4744647975        0.0323062701
 H         -2.0668284899       -2.2808653055       -0.0120664107
 H          0.2573759699       -2.9673808729        0.0004172764
 H          2.6547833044       -2.3791802875        0.0173726414
 H          3.3561463426       -0.0318993506        0.0003385487
 H          1.1887869503        2.7758640150       -0.3052368646
 H          2.7837139230        2.2095777703       -0.1810889353
