! r2scan-3c def2/J RI DEFGRID2 scfconv6 printgap
%output
    printlevel normal
end
* xyz 0 1
C 5.2336667832 -1.250708203 -0.8267524482
C 3.8630237802 -1.8301341242 -1.1199075416
O 2.9283363536 -1.5178289918 -0.0678263166
P 2.0319818772 -0.2077570929 -0.0649280968
S 2.9469481952 1.528663293 -0.1264818981
O 1.1455569698 -0.486069578 1.212855995
C 1.3152667945 0.2417154806 2.4449033278
C 2.5574634015 -0.2170634055 3.1786678231
S 0.6814185801 -0.5810743657 -1.6585277386
C 0.0590647577 1.1148238437 -1.8004620715
S -0.7592737529 1.7054545715 -0.2978694041
P -2.3290098871 0.2765971455 -0.2910454708
S -3.0635082884 -0.2054762185 -2.0334832685
O -3.4303958384 0.9020042334 0.6570226283
C -3.2387546834 1.1676673216 2.0693730442
C -2.8273662286 2.6068662054 2.3050596121
O -1.6729827189 -0.9081753493 0.5588080904
C -1.7848850301 -2.2955315512 0.1971840314
C -3.0990570519 -2.8723378418 0.6825468395
H 5.9233032833 -1.552184675 -1.6085719694
H 5.1872372635 -0.1644356058 -0.7951151081
H 5.5957473933 -1.6136883104 0.1311077564
H 3.8899586082 -2.9212671415 -1.1417367409
H 3.4724119911 -1.4578111369 -2.0715985843
H 1.3682461121 1.3116528794 2.2179900917
H 0.405442546 0.0278158484 3.007386151
H 2.5201017285 -1.2898052822 3.347824401
H 3.4387989024 0.0139164579 2.5813329785
H 2.6286336356 0.3000534035 4.1302317424
H -0.6513772975 1.1152740148 -2.6266060942
H 0.8896002468 1.7958563476 -1.9850915692
H -4.2145535221 0.959423691 2.5116049157
H -2.4960443359 0.4700005006 2.4624797415
H -1.8497478422 2.8047608812 1.8697607812
H -3.5510109854 3.2789819883 1.8523381749
H -2.7849496092 2.7927585954 3.3737041177
H -1.6993799702 -2.3874572867 -0.8902946941
H -0.924540282 -2.7691982699 0.6734308977
H -3.9260037643 -2.3512096501 0.2011821476
H -3.1467463521 -3.9252286872 0.4237522919
H -3.1892850585 -2.7606853281 1.7597099875
*
