! r2scan-3c def2/J RI DEFGRID2 scfconv6 printgap
%output
    printlevel normal
end
%cpcm
    smd true
    smdsolvent "water"
end
* xyz 0 1
C 3.1223936585 -1.2552551998 -2.5761877638
C 1.8997831485 -0.4508562843 -2.1886394933
O 1.3819332623 -0.8563803015 -0.9100490275
P 2.1353731254 -0.5384375338 0.4515743777
S 3.2797760568 1.0581969378 0.4786616805
O 2.8981793544 -1.9094343424 0.7036315014
C 3.9666009069 -2.0349126335 1.6595169058
C 3.4736432101 -1.9091134042 3.0866613631
S 0.5148875309 -0.6183414367 1.7871779888
C -0.0280906502 1.111951734 1.6351082458
S -0.1806208814 1.7205629606 -0.0726927451
P -1.9167427084 0.696645931 -0.7075550538
S -2.4287256528 1.1679723678 -2.5383510643
O -3.0163509954 0.9819498488 0.4114493008
C -3.9559303067 2.0697847383 0.3237478115
C -5.2961592652 1.5848053832 0.8407022868
O -1.5153958165 -0.8000782841 -0.4004008897
C -2.4601000091 -1.8456331835 -0.0774609677
C -3.4456724981 -2.0869462071 -1.2005978021
H 2.8994092136 -2.3181909335 -2.535596358
H 3.4270780182 -0.9848793713 -3.5822911613
H 3.9379658597 -1.0380733184 -1.8871602901
H 1.0669327149 -0.6118618422 -2.8763796175
H 2.1327627779 0.6192791875 -2.1466423295
H 4.3801691328 -3.0243938447 1.460161498
H 4.7152600973 -1.2662045513 1.4424987777
H 4.2876205918 -2.1350239299 3.7680181589
H 3.1285080568 -0.8931500566 3.2729699916
H 2.6506259547 -2.59667277 3.2643057234
H 0.713352546 1.7619972681 2.0967757605
H -0.9862278104 1.1806407224 2.1442677636
H -3.5688915076 2.8925871002 0.9291174098
H -4.0242699635 2.3923780604 -0.7207439955
H -6.0011411861 2.4093846611 0.8231589767
H -5.6737864516 0.7817054289 0.2136093159
H -5.1945827147 1.2208737491 1.8590737719
H -1.8230784491 -2.7141385012 0.0980267504
H -2.9736067626 -1.57047578 0.8458655156
H -4.106023545 -2.9058177711 -0.9329361412
H -4.0390971815 -1.1902257449 -1.3761804072
H -2.9207366553 -2.3322910023 -2.1208487855
*
