! r2scan-3c def2/J RI DEFGRID2 scfconv6 printgap
%output
    printlevel normal
end
%cpcm
    smd true
    smdsolvent "water"
end
* xyz 0 1
C 3.9527664718 -1.1823535243 -2.7096207014
C 4.2587663476 -1.5629208999 -1.2754356171
O 3.0638418881 -1.701535486 -0.4872708326
P 2.1524204114 -0.4576450382 -0.0891670268
S 3.1711386953 1.1574842139 0.3708701312
O 1.2640544977 -1.1051547847 1.051859399
C 1.6824680268 -1.1418513441 2.4343207875
C 0.9393381097 -0.0906251284 3.2348777221
S 0.7211772878 -0.3316783514 -1.6276026501
C 0.1786287336 1.369479169 -1.300568022
S -0.4743561477 1.6049345998 0.3703496792
P -2.1916119484 0.3913185564 0.1831883429
S -3.0502259397 0.2974727289 -1.5810605178
O -3.0973254887 0.8732820446 1.4000891809
C -3.4844906803 2.2310165439 1.682786014
C -4.0758577655 2.9431022391 0.4839949294
O -1.7173669539 -1.0058790168 0.7605759548
C -2.2834582071 -2.273616522 0.3649032088
C -1.3663323432 -2.9992666318 -0.5996729643
H 4.8683346049 -1.2091494414 -3.2916885776
H 3.2306766283 -1.8729075907 -3.13807572
H 3.5394611128 -0.1753336874 -2.7477349685
H 4.8969101608 -0.8081486473 -0.8045203677
H 4.7314671879 -2.5437396301 -1.209640102
H 1.4401753924 -2.1495521984 2.7759159085
H 2.7636680535 -0.9849753388 2.4897125257
H 1.2252369043 0.9059303278 2.9040595373
H -0.1327576238 -0.2094829998 3.0953982783
H 1.1821778289 -0.2011558395 4.286775982
H -0.5970164068 1.5854283389 -2.0351230121
H 1.0223365982 2.0516224228 -1.394960371
H -4.2172065141 2.1255524227 2.4850091402
H -2.6039907944 2.7634743409 2.0532039853
H -4.9028741016 2.3702466932 0.0709662821
H -4.4331860823 3.9216320604 0.7883390472
H -3.3209432298 3.0669330394 -0.2911725423
H -2.3996973506 -2.8272669085 1.2980672282
H -3.2646948998 -2.1044049075 -0.0878378351
H -0.3593047055 -3.0487613173 -0.1924252999
H -1.7414499935 -4.0049928613 -0.7596444154
H -1.3310920309 -2.4760216836 -1.5529632692
*
