! r2scan-3c def2/J RI DEFGRID2 scfconv6 printgap
%output
    printlevel normal
end
* xyz 0 1
C 1.8990736635 -3.2768647257 0.2861158565
C 2.8347602796 -2.8436702772 -0.8315486072
O 2.2193348432 -1.8001425035 -1.6094192185
C 2.4366131752 -0.5482521988 -1.2736332798
O 3.2007515726 -0.1832122004 -0.4051622933
C 1.5674197871 0.402052227 -2.0767298471
C 0.3303437252 0.7240114539 -1.2306639521
H -0.2336133252 1.5469020913 -1.6746991233
C 0.7646082589 1.1002458649 0.1770614852
O 0.6298321761 0.3515567613 1.1250819267
O 1.301314671 2.2869962486 0.201350884
C 1.8480515727 2.7838864331 1.4400521852
C 3.3657929462 2.7476629148 1.3803250547
S -0.7580869962 -0.7351973285 -1.1124023523
P -2.0312337088 -0.0203710624 0.4263017766
S -2.1179523411 1.9239123507 0.6426385667
O -3.4305319012 -0.6791167251 0.0055200813
C -4.1373338968 -0.2415935757 -1.1606172276
O -1.7696465152 -0.8019338633 1.7713561542
C -1.7694409416 -2.2426114115 1.8330210615
H 1.685122789 -2.4319905287 0.9398975125
H 0.9665606109 -3.6424212893 -0.1355348851
H 2.3662605903 -4.064050758 0.8680899727
H 3.0126375948 -3.6530324034 -1.5394943845
H 3.7804248805 -2.4696441901 -0.4288415087
H 1.2638063679 -0.0696266277 -3.0098019918
H 2.1146551329 1.3267738072 -2.2589300058
H 1.4693979779 3.8035737992 1.5283058526
H 1.4638594078 2.1690603834 2.2586788071
H 3.7699194333 3.0798135388 2.3305706815
H 3.7027325635 1.7326422082 1.1799415585
H 3.7242444 3.3978270438 0.5879342997
H -5.1212683427 -0.6982561431 -1.0932929053
H -3.6159779677 -0.5775884736 -2.0566107388
H -4.2204783058 0.8462558595 -1.1608622829
H -1.3506098734 -2.4854570067 2.806017721
H -1.1479036199 -2.6502494373 1.0357544383
H -2.7894309683 -2.6108227699 1.740627527
*
