! pbe def2-sv(p) def2/J RI DEFGRID1 loosescf d4 GCP(DFT/SV(P)) printgap
%output
    printlevel normal
end
* xyz 0 1
C 4.302683112 -1.9996743673 1.0543980459
C 2.8095686433 -1.9226769251 0.8049874439
O 2.58416188 -1.0129320956 -0.2896730597
C 1.4534172084 -1.0785709575 -0.9485006614
O 0.5483310852 -1.8549792638 -0.6980027211
C 1.3884785866 -0.0716437474 -2.0768907137
C 0.2071500831 0.8808162718 -1.8775103373
H 0.101043588 1.51653908 -2.7617756649
C 0.3620019731 1.7779496271 -0.6603846259
O -0.5546872448 1.9817426156 0.1112084259
O 1.5569235062 2.2911396335 -0.5797867484
C 1.8960288381 3.1097042857 0.5612518362
C 2.5492857315 2.2578843011 1.6363805232
S -1.3974227837 0.0290132605 -1.7450106633
P -1.5910278599 -0.4451905428 0.335921592
S -0.2969427581 -0.3423909605 1.8058277355
O -2.9848357951 0.2761604896 0.690073181
C -3.1467873085 1.5811107076 1.2386191362
O -2.1173520427 -1.9410781509 0.2866360047
C -3.1124269937 -2.4169997803 -0.6326810089
H 4.687890095 -1.0169424681 1.3074697449
H 4.4890672095 -2.6785224157 1.8795699785
H 4.8130165949 -2.3632473497 0.1673523646
H 2.2683265296 -1.540179009 1.6761997338
H 2.3834951018 -2.894871146 0.5378616422
H 1.2383126118 -0.6177037504 -3.0091036028
H 2.317765344 0.4957191805 -2.1090444033
H 2.5875162066 3.8535085515 0.1648388447
H 0.9872864849 3.5867220241 0.9361559703
H 1.8467453852 1.5108990935 2.0040503296
H 3.4201564559 1.7499220524 1.2318492965
H 2.8521752806 2.891596555 2.4628608664
H -3.0758958576 2.3278673337 0.4492792794
H -2.3787699524 1.7712478181 1.9891152163
H -4.1355915399 1.5852491315 1.6916044634
H -2.6996282752 -2.4424642843 -1.6411167284
H -3.9929141801 -1.7768302262 -0.6005724998
H -3.3517970919 -3.421535683 -0.2929071352
*
