  31
        -35.71758166
 C          3.6889925858        0.3685492735        0.0422806240
 C          2.2147182942        0.2960618368       -0.3466521150
 H          2.1379380674        0.3296016044       -1.4393405199
 C          1.4316981519        1.4746168199        0.2309937965
 C         -0.0396993177        1.3872228395       -0.1625309205
 C         -0.6694123140        0.0901699605        0.3475260782
 H         -0.5435338181        0.0566626573        1.4376430618
 C          0.1072220826       -1.1064508956       -0.2324983600
 H          0.0079312985       -1.1142463600       -1.3236048158
 C          1.5891360480       -1.0093058375        0.1420062894
 O         -0.4357173371       -2.3495385067        0.1757798893
 C         -2.1816399700       -0.0245679277        0.0642691891
 C         -2.9902011400        0.8345364909        1.0358275879
 C         -2.5620023141        0.3233813805       -1.3738499913
 H          4.1327560559        1.2919118477       -0.3217444804
 H          3.7981408828        0.3382644038        1.1241641101
 H          4.2379004861       -0.4685355370       -0.3822250166
 H          1.5232334527        1.4701597756        1.3196032486
 H          1.8539330067        2.4121469265       -0.1357584200
 H         -0.5788126832        2.2421370554        0.2476029692
 H         -0.1147517940        1.4265759158       -1.2500021198
 H          1.6824178917       -1.0660364587        1.2303267670
 H          2.1163843723       -1.8651998952       -0.2853089577
 H         -0.3134100411       -2.4398138178        1.1313400101
 H         -2.4496847556       -1.0744913788        0.2327568523
 H         -2.7659261302        1.8893750155        0.8964247250
 H         -2.7698570575        0.5679696166        2.0669484287
 H         -4.0543464898        0.6895861129        0.8658410296
 H         -3.6097274680        0.0843789269       -1.5419592179
 H         -1.9693404102       -0.2486407133       -2.0829736601
 H         -2.4214594225        1.3832074393       -1.5695335694
