! r2scan-3c def2/J RI DEFGRID2 scfconv6 printgap
%output
    printlevel normal
end
* xyz 0 1
C 5.3831824442 -0.0657732822 -1.0673080771
C 4.4902483933 -0.842872515 -0.1189890565
O 3.5022752572 0.0133388924 0.4848735062
P 2.0505730004 0.2220801478 -0.1325763162
S 1.9711836892 0.8464986139 -1.9923924416
O 1.422048546 1.1590074338 0.9781704711
C 1.4281594306 2.5963768493 0.845944603
C 2.8329158313 3.1566892244 0.8798931089
S 1.1540978578 -1.6532768656 0.2588425637
C 0.1072238798 -1.8448893751 -1.225898897
S -1.608715505 -2.2553651325 -0.826851831
P -2.1326576084 -0.4839409591 0.183891978
S -1.4111470017 1.1846285822 -0.5686482978
O -1.7065604312 -0.8309579105 1.6652644284
C -1.4638736528 0.1689303162 2.6747420195
C -2.7128093014 0.9659524375 2.9839972325
O -3.7130032346 -0.593205065 0.2828821314
C -4.5825889626 -0.4301512784 -0.8559407591
C -5.055431073 1.005726519 -0.978175222
H 4.7993440618 0.3332979479 -1.8938024746
H 5.8582129472 0.7584306952 -0.5425942822
H 6.1470014184 -0.7281489494 -1.461505231
H 5.0576280915 -1.2403743604 0.7246960707
H 3.9870242217 -1.6643864761 -0.6375461989
H 0.9189781735 2.8585345729 -0.087649175
H 0.8313041836 2.9407626695 1.6918501088
H 3.3860258401 2.8141523035 0.0060221872
H 2.787323609 4.2410871711 0.867002162
H 3.3478120561 2.8219445641 1.7766333378
H 0.4836120917 -2.6833778735 -1.8062450673
H 0.1511795253 -0.9166825643 -1.8035252644
H -1.1233166479 -0.4108837239 3.5337812598
H -0.6561537803 0.820975832 2.3280192824
H -3.5239951715 0.2969129275 3.2590045714
H -2.5130627316 1.6516256658 3.8014993948
H -3.0104123139 1.5365409836 2.1044142639
H -4.0577693218 -0.7502967166 -1.7605167154
H -5.4153913696 -1.1081234524 -0.6607243642
H -4.2109323077 1.6667648865 -1.161147597
H -5.7502526268 1.0835265148 -1.808099408
H -5.5522470528 1.3153571738 -0.0629769217
*
