! pbe def2-sv(p) def2/J RI DEFGRID1 loosescf d4 GCP(DFT/SV(P)) printgap
%output
    printlevel normal
end
* xyz 0 1
C 4.1682956687 -2.4623271931 -0.174839876
C 4.7960189441 -1.0859840322 -0.0900754654
O 3.8655567175 -0.0872649297 0.3644212328
P 2.6119537645 0.3681433365 -0.4969418832
S 2.9361193328 0.5240901343 -2.4216503657
O 2.2528182927 1.7752451791 0.1183540684
C 1.6551399397 2.0664153735 1.4022168478
C 2.3002965182 1.3189841692 2.5488751218
S 1.0587558203 -0.9809746733 0.0609127366
C -0.0503075635 -0.5874666925 -1.3039509096
S -0.9098969565 1.0075886748 -1.0729225244
P -2.5996012328 0.2629809575 -0.0359320094
S -3.7888426554 1.6032181006 0.7525795281
O -2.0247479472 -0.8174739167 0.9799208729
C -1.6077548928 -0.4823453835 2.3183649196
C -1.2314384842 -1.7752510298 3.011169872
O -3.2042465715 -0.6610258152 -1.1730955266
C -4.5854319596 -1.0810010204 -1.1493933398
C -4.863993549 -2.0349832248 -0.0073894067
H 3.4301807092 -2.4867133722 -0.9747874887
H 4.9406228069 -3.1939953574 -0.3893884161
H 3.6813460031 -2.7156376816 0.7631680702
H 5.1833601415 -0.7790200906 -1.0665943573
H 5.5943667905 -1.0522510571 0.6525127015
H 1.7861350939 3.1455006779 1.4991884523
H 0.5852429952 1.8454436333 1.3282880071
H 3.3667894841 1.5257561976 2.5755770718
H 1.8477477951 1.6448310299 3.4807472798
H 2.1533364717 0.2464291427 2.4364788911
H -0.7837434335 -1.3842731648 -1.3821822843
H 0.5364026138 -0.4888520877 -2.2187540698
H -0.7521485818 0.1956804888 2.2638711334
H -2.4339727987 0.0322548116 2.818531625
H -0.9046399895 -1.5551088052 4.021765128
H -2.0861271461 -2.4438828792 3.0475207248
H -0.4252612723 -2.258307148 2.4655632522
H -5.2156267382 -0.1895983727 -1.0711516961
H -4.7295713205 -1.5537470175 -2.1218129754
H -4.747366744 -1.5152864636 0.9425595271
H -5.8830518066 -2.4005962101 -0.0861479817
H -4.1742309848 -2.8741376861 -0.0393445113
*
