! pbe def2-sv(p) def2/J RI DEFGRID1 loosescf d4 GCP(DFT/SV(P)) printgap
%output
    printlevel normal
end
* xyz 0 1
C 3.9121017267 -3.7342382837 0.5520161405
C 2.8830325815 -2.6645847868 0.8581613267
O 2.8749938398 -1.7300354884 -0.2415049455
C 1.8706431816 -0.9021592167 -0.3507625253
O 0.9449819669 -0.8556898183 0.4464560033
C 1.9605524749 -0.0157984636 -1.5640350207
C 0.7858665539 0.9458208179 -1.6117724936
H 0.8010144585 1.5373460518 -2.5307179268
C 0.7394799176 1.8973903367 -0.4268333187
O 1.5823281603 1.9197174364 0.442670526
O -0.3017029756 2.6949327683 -0.5026755145
C -0.488761002 3.6914163571 0.5194910117
C 0.1985971869 4.9902690647 0.1305498446
S -0.821996058 0.0709878551 -1.7481044829
P -1.4467080204 -0.5304977073 0.201892601
S -1.4087380779 -2.4259805395 0.7336532223
O -1.0978942714 0.5952162213 1.2712745218
C -0.4391177732 0.3390389914 2.5118517564
O -2.9880045732 -0.0727074967 0.0572851908
C -3.8799588289 -0.7468481965 -0.8289201569
H 3.9494268089 -4.4383706083 1.3763170485
H 3.642251447 -4.2633403829 -0.3568838295
H 4.8897958281 -3.2810706724 0.4201927375
H 3.1321702313 -2.1119677254 1.7689736133
H 1.8762805554 -3.0809145947 0.968938261
H 1.973611593 -0.6419010023 -2.4574395917
H 2.9013569006 0.535884137 -1.5119395674
H -1.5703118076 3.8119006168 0.5872445652
H -0.093890964 3.3036691322 1.4623166644
H -0.16378464 5.3294163153 -0.8357398156
H -0.0173245182 5.7449657035 0.8794295577
H 1.2748765604 4.8434490992 0.076703921
H -1.0105976964 0.8585594415 3.2782826027
H 0.5791803114 0.7255823779 2.4536321265
H -0.4134446272 -0.7325562936 2.7167660731
H -4.8695550123 -0.3595109134 -0.6003207127
H -3.841251755 -1.8237751989 -0.6510110297
H -3.6137704766 -0.534521742 -1.8655800479
*
