! pbe def2-sv(p) def2/J RI DEFGRID1 loosescf d4 GCP(DFT/SV(P)) printgap
%output
    printlevel normal
end
* xyz 0 1
C 3.2390402168 -1.6079262444 1.7433951836
C 3.0697182047 -2.1933317133 0.3519584996
O 2.7564135759 -1.1580759954 -0.6000200215
C 1.5422798936 -1.0717703086 -1.0962695761
O 0.6159751277 -1.800180732 -0.7972922554
C 1.4423203535 0.0306319539 -2.1306679969
C 0.2400345628 0.945497974 -1.8881345445
H 0.1379927774 1.6327589715 -2.7330085512
C 0.3727428507 1.770011931 -0.6225154535
O -0.5332269915 1.8698342934 0.1849741514
O 1.5325015998 2.3526629124 -0.529080776
C 1.8279985516 3.133286179 0.6515721267
C 2.4207297966 2.2484142558 1.7345467013
S -1.3567143133 0.057805369 -1.8220895683
P -1.6760118111 -0.3391737924 0.2457763688
S -0.3931684634 -0.5567439224 1.7262027604
O -2.9366978405 0.5690299108 0.5974542608
C -2.970134764 1.5917971931 1.5907484156
O -2.5716060894 -1.6597911564 0.0688972008
C -2.0468577243 -2.961256987 -0.1802257418
H 2.2996011296 -1.179555917 2.0880588651
H 3.5332690512 -2.3968811788 2.4273036861
H 4.0026629878 -0.8361127066 1.7365079972
H 2.2678241357 -2.9364344658 0.3366771591
H 4.0017378036 -2.6338370747 -0.0068552467
H 1.3172316596 -0.448046964 -3.1034345097
H 2.3611250476 0.6163739688 -2.1184036092
H 2.5440978198 3.8785556692 0.3058369068
H 0.9081308074 3.6113840106 0.9968242676
H 2.6715997587 2.8549396553 2.5980122834
H 1.7024326093 1.4877276037 2.0373557266
H 3.3168632306 1.7566704269 1.3672169644
H -2.8292312597 2.5596757761 1.1124155186
H -2.1837497769 1.4300514155 2.3307422187
H -3.9502208433 1.5281371355 2.058395175
H -2.8799467288 -3.6437134917 -0.0305205217
H -1.2387038501 -3.1807955574 0.5190140304
H -1.6673900158 -3.0284651572 -1.199490332
*
