  17
        -39.51389570
 C          1.6668077929       -2.4502713189       -0.3299538491
 C          0.8224342430       -1.1909512706       -0.2297159674
 H          0.4209568669       -0.9057964108       -1.2095991164
 C         -0.3228016481       -1.3723303345        0.7745831204
 O         -1.0859100443       -0.1825007909        0.9576637056
 N         -2.0018848164        0.1352153758       -0.0119624516
 O         -2.1046583050       -0.6105364960       -0.9311307682
 O         -2.5932216432        1.1405980164        0.2055809548
 O          1.6976349545       -0.1426753832        0.2265854073
 N          1.4175800709        1.1340700322       -0.1205519604
 O          2.2080576591        1.9269640277        0.2780177653
 O          0.4394385153        1.3350184975       -0.7773801608
 H          1.0559214283       -3.2679655208       -0.6950907306
 H          2.4886734634       -2.2854138628       -1.0190269648
 H          2.0723253875       -2.7033193856        0.6439161728
 H         -0.9717485683       -2.1840056733        0.4373007243
 H          0.0740087407       -1.5799021394        1.7684360779
  17
        -39.51331310
 C          1.2182882251       -2.0731696170        1.2280683056
 C          1.0716082747       -1.1605493478        0.0217432118
 H          1.9069464458       -1.2804014858       -0.6773607170
 C         -0.2320604961       -1.4183772632       -0.7487777148
 O         -1.3767964123       -1.2241290345        0.0759723563
 N         -1.8990723175        0.0303264527        0.1520380764
 O         -1.3738502357        0.8921823240       -0.4846802945
 O         -2.8491264147        0.1109868241        0.8600638731
 O          1.0929624911        0.1864961832        0.5289974827
 N          1.4118893276        1.1945965102       -0.3283633485
 O          1.6468803049        0.9048233997       -1.4585779352
 O          1.4205140423        2.2677843258        0.1805331399
 H          1.3230054906       -3.0986176097        0.8924150335
 H          2.0971510676       -1.7901136915        1.7981250107
 H          0.3441628761       -1.9914778999        1.8669151443
 H         -0.2947293209       -0.7731775005       -1.6305377981
 H         -0.2798467263       -2.4653805204       -1.0443759867
  17
        -39.51309203
 C          1.9119835246       -2.4236458921       -0.0401642033
 C          0.9270797878       -1.2842849702       -0.2536026429
 H          0.7779505746       -1.0793141628       -1.3204789531
 C         -0.4302554970       -1.5946881215        0.3939704027
 O         -1.5247443995       -0.9619543057       -0.2674461164
 N         -1.8850766332        0.2895688267        0.1290798921
 O         -1.2492385256        0.7965278799        1.0022491761
 O         -2.8167515702        0.7311657886       -0.4582230979
 O          1.5292049581       -0.1247623997        0.3562725327
 N          1.2822051140        1.0984375765       -0.1623905044
 O          0.5243474938        1.1715276872       -1.0840619286
 O          1.8675161470        1.9802223891        0.3767292872
 H          2.0104040891       -2.6333179775        1.0197707625
 H          1.5640895799       -3.3092910372       -0.5592287933
 H          2.8846949977       -2.1424817314       -0.4309290064
 H         -0.6495695345       -2.6567036580        0.2923408818
 H         -0.4106648752       -1.3082789390        1.4496259119
  17
        -39.51234727
 C          2.1171328342       -1.8615262023        0.3300177037
 C          0.7609452121       -1.3638699147       -0.1514017530
 H          0.3283565153       -2.0711680328       -0.8660559628
 C         -0.2198140574       -1.1759833707        1.0123249323
 O         -1.5664919737       -1.0446466730        0.5587083006
 N         -2.0059758590        0.1949772981        0.2077223904
 O         -1.2360813528        1.1020606666        0.2974085547
 O         -3.1378634216        0.2200488799       -0.1500209849
 O          0.8611938545       -0.1830870939       -0.9754993251
 N          1.3834058223        0.9733575459       -0.4774581452
 O          1.7378580521        0.9940507653        0.6566022451
 O          1.4190140423        1.8509333019       -1.2785259824
 H          2.5219190077       -1.2180671924        1.1057772149
 H          2.0059372102       -2.8652503052        0.7242467627
 H          2.8098671742       -1.8911614258       -0.5063219407
 H         -0.2325450239       -2.0821453076        1.6165610279
 H          0.0558215300       -0.3172326074        1.6309393660
  17
        -39.51168811
 C          1.4189279084       -1.3448714410        1.3975494542
 C          0.9392259439       -1.0153760404       -0.0082402514
 H          1.6867850436       -1.3072491401       -0.7535183411
 C         -0.4000952368       -1.6821384752       -0.3421363610
 O         -1.4164383213       -1.2249226814        0.5399480590
 N         -2.1715950051       -0.1556796848        0.1466127719
 O         -2.0103988912        0.2740389972       -0.9498076444
 O         -2.9370422825        0.2080079766        0.9802853782
 O          0.6959104776        0.4021969544       -0.1350838934
 N          1.7374525060        1.2109474226       -0.4500028228
 O          2.8035622907        0.7088440861       -0.6174019429
 O          1.4421967933        2.3611610053       -0.5216229545
 H          0.6700412550       -1.0473179366        2.1263692229
 H          1.5901278273       -2.4125032823        1.4765407850
 H          2.3515366978       -0.8279433344        1.6075474164
 H         -0.6894500738       -1.4664806866       -1.3743088007
 H         -0.3335498094       -2.7562501500       -0.1751928587
  17
        -39.51159698
 C          1.9925044526       -1.8675814699        0.3148482186
 C          0.8717159733       -1.0486566594       -0.3058992367
 H          1.0354613824       -0.9062813191       -1.3802196529
 C         -0.4971815928       -1.6896756123       -0.0631789807
 O         -1.5231653957       -0.9147345160       -0.6698836896
 N         -2.2071270419       -0.0204833869        0.1126349760
 O         -1.9805192559       -0.0049116262        1.2776798467
 O         -2.9799374827        0.6395956931       -0.5040751287
 O          0.7789079968        0.2568789437        0.3058378412
 N          1.6651440652        1.2075129712       -0.0772479004
 O          2.4767154692        0.9155617271       -0.8980123370
 O          1.5095740148        2.2538484880        0.4684362070
 H          1.8621565690       -1.9200849366        1.3918044228
 H          1.9776429066       -2.8694292322       -0.0987550575
 H          2.9552389931       -1.4157845285        0.0917548767
 H         -0.5428805578       -2.6662880786       -0.5429667040
 H         -0.6851260551       -1.7735446860        1.0106159865
  17
        -39.51150846
 C          1.3626138245       -1.6076691010        1.3686364701
 C          0.9657348800       -1.0382643096        0.0146440719
 H          1.7455795963       -1.2173862769       -0.7330380547
 C         -0.3620638559       -1.6160098394       -0.4934989261
 O         -1.4258976349       -1.2755605158        0.3864561972
 N         -2.1143135714       -0.1231284364        0.1372278815
 O         -1.8468688410        0.4888876123       -0.8473214485
 O         -2.9380330950        0.1198470680        0.9588199619
 O          0.7723548492        0.3858815869        0.1400883670
 N          1.6763091704        1.2381989841       -0.4084154263
 O          2.6044966025        0.7771376046       -0.9930046718
 O          1.4125992787        2.3829702769       -0.2249035151
 H          2.2725111701       -1.1319122264        1.7230025515
 H          0.5687499283       -1.4384288683        2.0904592662
 H          1.5391508264       -2.6730705514        1.2724733963
 H         -0.5868508636       -1.2458300684       -1.4977336416
 H         -0.3216810231       -2.7042747707       -0.4851174554
  17
        -39.51073854
 C          1.5718665501       -2.0010762888       -0.5739974773
 C          0.6272760674       -0.8660841674       -0.2057979391
 H          0.1790504341       -0.4377007853       -1.1105891413
 C         -0.4567254386       -1.3309452235        0.7693901784
 O         -1.3981234012       -0.3050725500        1.0593155656
 N         -2.3902367518       -0.0867317688        0.1440000727
 O         -2.3910143149       -0.7587712531       -0.8380705140
 O         -3.1466611776        0.7753851113        0.4547113016
 O          1.3398503430        0.1769002228        0.4889566222
 N          1.9519003075        1.1390293038       -0.2399437875
 O          2.5072269499        1.9589511221        0.4196988533
 O          1.8748504793        1.0775892336       -1.4281870106
 H          1.0130654760       -2.7950171550       -1.0564947705
 H          2.3283725257       -1.6431163024       -1.2671896510
 H          2.0568143826       -2.3869490301        0.3172877791
 H         -0.9677864046       -2.2026031799        0.3536820867
 H         -0.0131437994       -1.5612270651        1.7375361676
  17
        -39.51056311
 C          1.8134239298       -1.9598960612       -0.1304039230
 C          0.6247037465       -1.0375612562       -0.3582497219
 H         -0.0040362769       -1.4266371460       -1.1656525236
 C         -0.2141845149       -0.8729721238        0.9178767231
 O         -1.1935351230        0.1511492742        0.7774118238
 N         -2.3381537241       -0.1618424571        0.0941971178
 O         -2.4325728118       -1.2633629890       -0.3426108148
 O         -3.1126643384        0.7359398930        0.0263031471
 O          1.0014453463        0.2413118416       -0.9041402304
 N          1.7880934099        1.0951962411       -0.1948058263
 O          2.1424722615        0.7733383839        0.8934434416
 O          2.0295408182        2.1035140891       -0.7789920303
 H          2.4119913941       -2.0121315109       -1.0352596099
 H          2.4332218621       -1.6099008363        0.6900546750
 H          1.4472458570       -2.9533963646        0.1031134034
 H         -0.6953963949       -1.8267501311        1.1476248590
 H          0.3964872558       -0.5433252753        1.7592312757
  17
        -39.51023527
 C          1.5115974386       -1.3511790014        1.3993519252
 C          1.0798890239       -1.4279064292       -0.0579060230
 H          1.5719926931       -2.2701445774       -0.5526270976
 C         -0.4343151872       -1.6295940948       -0.2278105496
 O         -1.2193791808       -0.8930676332        0.7069655133
 N         -1.8844385674        0.2154235893        0.2810844864
 O         -1.8062327509        0.5077048368       -0.8721009658
 O         -2.4962568326        0.7594761985        1.1401412447
 O          1.6025081214       -0.3423691893       -0.8567316657
 N          1.3305314019        0.9500779537       -0.5600630197
 O          0.5517935958        1.1805249926        0.3137161724
 O          1.9170357016        1.7291523098       -1.2409976213
 H          1.0085175043       -0.5430139543        1.9237895640
 H          1.2562291345       -2.2860468636        1.8858031832
 H          2.5860672488       -1.2030620781        1.4579860302
 H         -0.7375292196       -1.3753942770       -1.2481666943
 H         -0.6686501990       -2.6737223865       -0.0186987081
  17
        -39.51009355
 C          1.0619468060       -1.7038512727       -0.5636513613
 C          0.5199322231       -0.3917808890       -0.0165905610
 H          0.0825839745        0.2136082900       -0.8212539462
 C         -0.5161812621       -0.6174918148        1.0959926153
 O         -1.6935791771       -1.2218240618        0.5903022099
 N         -2.6131720952       -0.4012879000       -0.0104676137
 O         -2.3489597405        0.7560673309       -0.0875636954
 O         -3.5832382373       -0.9706357408       -0.3887389179
 O          1.5593478595        0.3769342945        0.6069513489
 N          2.3514825051        1.1427493319       -0.1930789454
 O          2.1436669613        1.1247577577       -1.3644608256
 O          3.1779455002        1.7537423991        0.4029657186
 H          0.2317034762       -2.3376445346       -0.8590860849
 H          1.6924164150       -1.5242169067       -1.4303682895
 H          1.6402272869       -2.2104619987        0.2037911771
 H         -0.1344192662       -1.3251460506        1.8312502924
 H         -0.7523827544        0.3362810777        1.5766057067
  17
        -39.50972493
 C          0.5276132184       -1.9720756538        0.4738110093
 C          0.8523070624       -0.7367689199       -0.3519619302
 H          1.5884303692       -0.9613416317       -1.1326412864
 C         -0.3750812045       -0.1251640017       -1.0441685279
 O         -1.3574831535        0.2836473205       -0.1020299366
 N         -2.4317721350       -0.5423262044        0.1154704166
 O         -2.5047291532       -1.5440339552       -0.5179640621
 O         -3.1808351308       -0.1257215595        0.9376006981
 O          1.4287934989        0.2038563094        0.5688035564
 N          2.1825217508        1.2155520792        0.0721628359
 O          2.3002350144        1.2921202404       -1.1119121033
 O          2.6492131883        1.9230891218        0.9060710405
 H         -0.0890900784       -1.6979665758        1.3258459247
 H          0.0011057741       -2.6975635558       -0.1380182417
 H          1.4438485282       -2.4153732976        0.8494719485
 H         -0.1004760938        0.7779333941       -1.5924528714
 H         -0.8014074429       -0.8601339372       -1.7319321568
  17
        -39.50953651
 C          0.8155512364       -2.1986214295       -0.3080590789
 C          0.6351110024       -0.6948451458       -0.1817225827
 H          0.2437708418       -0.2533226119       -1.1072884766
 C         -0.2930185809       -0.3278320934        0.9940279289
 O         -1.5718395388       -0.9199234729        0.8456789496
 N         -2.4898286156       -0.2646295585        0.0647768546
 O         -2.1514766354        0.7519968490       -0.4500251090
 O         -3.5377761777       -0.8192945771        0.0040454363
 O          1.9360356430       -0.1518596097        0.0696670785
 N          2.1771336158        1.1499324118       -0.2532211896
 O          1.2729385781        1.7919158040       -0.6865239862
 O          3.2976238681        1.4895154400       -0.0520047699
 H          1.3372937351       -2.5742900035        0.5664390956
 H         -0.1557053580       -2.6776439535       -0.3775818075
 H          1.3977876598       -2.4330480202       -1.1930183676
 H          0.0987395772       -0.7444048460        1.9226440677
 H         -0.3950260679        0.7598255310        1.0712524223
  17
        -39.50924967
 C          1.5021006865       -1.9971213158       -0.4084901621
 C          0.6388921046       -0.7992789817       -0.0436707137
 H          0.1890482293       -0.3737665837       -0.9495892464
 C         -0.4620763789       -1.1432085216        0.9756513644
 O         -1.7355007413       -1.2820466800        0.3654987032
 N         -2.3939401864       -0.1297763060        0.0306179538
 O         -1.8356689300        0.9008511976        0.2412891704
 O         -3.4659047136       -0.3106718692       -0.4464597247
 O          1.4374696581        0.2254057075        0.5726774523
 N          1.9871733154        1.1834846228       -0.2183606055
 O          1.7967494239        1.1185462780       -1.3919506219
 O          2.6128306176        1.9945815425        0.3842967952
 H          2.0357913949       -2.3490309525        0.4692643889
 H          0.8671749910       -2.7890289195       -0.7915556432
 H          2.2200087921       -1.7235529225       -1.1774517912
 H         -0.2837742344       -2.1121820016        1.4392563325
 H         -0.4924048872       -0.3611454170        1.7405229858
  17
        -39.50906279
 C          0.5950862047       -1.0956902232        0.9964211858
 C          0.6867868611       -0.4676908193       -0.3885701322
 H          1.4200283377       -1.0046042963       -1.0014094897
 C         -0.6476872614       -0.4439766896       -1.1411834588
 O         -1.6904631323        0.1174850661       -0.3571926483
 N         -2.5412260861       -0.7366273047        0.2947754788
 O         -2.3856578802       -1.9054706058        0.1458411354
 O         -3.3607702418       -0.1750024027        0.9459849765
 O          1.1022627541        0.9085055084       -0.2905854267
 N          2.4252525961        1.1657871633       -0.1352839634
 O          3.1726719823        0.2395808432       -0.0877971900
 O          2.6826894586        2.3250072414       -0.0671425970
 H         -0.0100609955       -0.4733008376        1.6523892528
 H          0.1511049010       -2.0837850804        0.9215736458
 H          1.5875133206       -1.1937482637        1.4281964608
 H         -0.5706929365        0.2036010441       -2.0151046617
 H         -0.9158372901       -1.4621758801       -1.4357422640
  17
        -39.50890993
 C          1.1312679369       -2.1867188705        0.7260411166
 C          1.0562832927       -1.0196855012       -0.2445657214
 H          1.6669860380       -1.1980917845       -1.1377393615
 C         -0.3749212604       -0.7357961785       -0.7097122206
 O         -1.1446306911       -0.4081566626        0.4470716327
 N         -2.4699679042       -0.1855648155        0.2537062708
 O         -2.8853681428       -0.2804086771       -0.8587602122
 O         -3.0637922658        0.0859427924        1.2475040460
 O          1.5915133979        0.1123714412        0.4568961909
 N          1.9956876637        1.1862660366       -0.2648436972
 O          2.4563031254        2.0643148297        0.3917148458
 O          1.8530341642        1.1470395442       -1.4485866652
 H          2.1545620139       -2.3177529634        1.0617896413
 H          0.5024797045       -1.9852942660        1.5874752855
 H          0.7973066690       -3.0925020019        0.2324324511
 H         -0.4062035495        0.0962259453       -1.4209614608
 H         -0.7882201520       -1.6253854136       -1.1920756346
  17
        -39.50875411
 C          1.0350929485       -2.2023863797       -0.2760943254
 C          0.8576319112       -0.6955935354       -0.3377592025
 H          0.7895648590       -0.3469611156       -1.3749083584
 C         -0.3970607510       -0.2343863599        0.4181463680
 O         -1.5110821554       -0.7811336986       -0.2770411482
 N         -2.7430256681       -0.3183776989        0.0806225005
 O         -2.7924447779        0.4915573605        0.9511954390
 O         -3.6337421186       -0.7996842811       -0.5402027756
 O          2.0158564804       -0.1196912905        0.2746987689
 N          2.3408024170        1.1673928100       -0.0350369340
 O          1.6073410177        1.7636416867       -0.7597419941
 O          3.3440338551        1.5437888390        0.4761637161
 H          1.9047872823       -2.4978311535       -0.8532992017
 H          1.1743063978       -2.5151476770        0.7538594006
 H          0.1501234520       -2.6773456553       -0.6859472267
 H         -0.3814486448       -0.6033063277        1.4483955494
 H         -0.4729123138        0.8586220913        0.4252228758
  17
        -39.50873674
 C          1.1727278276       -1.6834097442        0.4528933767
 C          0.4772896693       -0.5630464660       -0.3067935573
 H         -0.1332801529       -0.9734278953       -1.1182814993
 C         -0.4187416426        0.2895663836        0.6131455227
 O         -1.5464577941       -0.4571558027        1.0398408478
 N         -2.6373677689       -0.4930339364        0.2096650577
 O         -2.5622856195        0.0881513484       -0.8251361275
 O         -3.5449393280       -1.1202367082        0.6475819631
 O          1.3909386837        0.2563288359       -1.0508747920
 N          2.3358670459        0.9983033614       -0.4055896814
 O          2.3291554745        1.0135550023        0.7835090254
 O          3.0706380113        1.5680611614       -1.1457212050
 H          1.7703761112       -2.2808316953       -0.2294136836
 H          1.8102407499       -1.2862129825        1.2381008284
 H          0.4170551805       -2.3151691694        0.9090844233
 H          0.0968421384        0.5550138984        1.5371921780
 H         -0.7457689296        1.1895992491        0.0816486935
  17
        -39.50871215
 C          1.1018209263       -2.2493487152       -0.2401154474
 C          0.8531993241       -0.7521791200       -0.2844423999
 H          0.6930283329       -0.4077081084       -1.3130940954
 C         -0.3620149223       -0.3493969468        0.5658851359
 O         -1.5094397591       -0.9216991622       -0.0488318466
 N         -2.6987860420       -0.2601605842        0.0739430939
 O         -2.7146703432        0.7400003160        0.7174634046
 O         -3.5942707390       -0.7931908230       -0.4949902411
 O          2.0267043723       -0.1225143058        0.2403203331
 N          2.2714706704        1.1745074919       -0.0984979447
 O          1.4635084382        1.7312990666       -0.7741401503
 O          3.2899127939        1.5998170438        0.3391549254
 H          1.3450869795       -2.5514436629        0.7735093228
 H          0.2043491419       -2.7631078080       -0.5679472441
 H          1.9284933969       -2.5097933590       -0.8925685970
 H         -0.2612341760       -0.7399206955        1.5825732985
 H         -0.4737160795        0.7399275830        0.6000007275
  17
        -39.50855358
 C          2.0111745697       -1.9705507403        0.2352278179
 C          0.9276468679       -1.1779718346       -0.4828575646
 H          0.6390387860       -1.6688004824       -1.4164914789
 C         -0.3123110809       -1.0024414736        0.3972908166
 O         -1.2162400873       -0.1511596198       -0.3115937065
 N         -2.4752877063       -0.0368593369        0.1921808406
 O         -2.7286606237       -0.6543288309        1.1773650805
 O         -3.1795001745        0.6875129127       -0.4343686000
 O          1.4139977430        0.0769302902       -0.9920356684
 N          1.8026052190        1.0675217321       -0.1525500955
 O          1.7200329763        0.8884932748        1.0221845752
 O          2.1907148457        2.0409274100       -0.7175680059
 H          2.8892826216       -2.0419744130       -0.3997592506
 H          2.2856953765       -1.4971103690        1.1738235666
 H          1.6453571016       -2.9701899423        0.4408664135
 H         -0.7763917955       -1.9774196759        0.5678673583
 H         -0.0667987034       -0.5511464013        1.3634607504
  17
        -39.50853100
 C          0.2934751044       -1.6174926387       -0.9773241962
 C          0.5838368240       -0.1779263264       -0.5822051420
 H          0.6835139720        0.4582984683       -1.4696985698
 C         -0.4949378092        0.4155890885        0.3463716668
 O         -1.7693943218        0.3616945860       -0.2697715617
 N         -2.6506308733       -0.6173454861        0.1337621699
 O         -2.3134827097       -1.3494545614        1.0044119882
 O         -3.6741116916       -0.5926014375       -0.4656384104
 O          1.8326366739       -0.1949688650        0.1191266325
 N          2.5566645529        0.9576257354        0.1814673340
 O          2.0834770949        1.9359451151       -0.3050092106
 O          3.6010822605        0.8360183886        0.7333696893
 H          1.1439631289       -2.0233807522       -1.5156053079
 H          0.1172057580       -2.2247353652       -0.0937849845
 H         -0.5763811564       -1.6510946266       -1.6263856708
 H         -0.5109163493       -0.1398564021        1.2898965142
 H         -0.3017729502        1.4746070021        0.5309421962
  17
        -39.50820365
 C          0.1958114720       -0.1943143630       -1.4934044859
 C          0.4104493800        0.3415334515       -0.0846604951
 H          0.3534069758        1.4368047861       -0.0846213119
 C         -0.5874653928       -0.2304375161        0.9353639655
 O         -1.9033275667        0.2098088149        0.6521950489
 N         -2.7684533622       -0.6678212009        0.0354428677
 O         -2.3771477228       -1.7607723091       -0.2081431022
 O         -3.8352737002       -0.1929441879       -0.1751204318
 O          1.6921686070       -0.0563518987        0.4240330817
 N          2.7804348788        0.6803647408        0.0633141209
 O          2.6094390759        1.6105991201       -0.6580197624
 O          3.7968938262        0.2852798324        0.5344745265
 H          0.9554381990        0.2003068686       -2.1632034195
 H          0.2412685988       -1.2802701678       -1.4973739397
 H         -0.7728278508        0.1276694018       -1.8637023660
 H         -0.5419726183       -1.3231334620        0.9219139931
 H         -0.3520157832        0.1381466918        1.9345852840
  17
        -39.50810543
 C          0.9001137871       -1.5525754798        1.0919456556
 C          0.9514477345       -1.2501938338       -0.4000659141
 H          1.4619886452       -2.0709986040       -0.9141465432
 C         -0.4181637247       -1.1021688223       -1.0805836460
 O         -1.1585188220        0.0378363249       -0.6552614322
 N         -2.0697406073       -0.1132474121        0.3526527628
 O         -2.2087786519       -1.1973259467        0.8194627572
 O         -2.6336495433        0.8944009320        0.6323024477
 O          1.8166270831       -0.1472773807       -0.7390845173
 N          1.6699575086        1.0820435030       -0.1763150289
 O          0.8053257376        1.2541199926        0.6223340047
 O          2.4731936356        1.8681584983       -0.5682497985
 H          1.9098974653       -1.6845210242        1.4707917356
 H          0.4180531992       -0.7628941295        1.6619778254
 H          0.3452929597       -2.4731561909        1.2423654330
 H         -0.2804712302       -0.9460995231       -2.1516987422
 H         -1.0019319056       -2.0081555461       -0.8977167619
  17
        -39.50794764
 C          1.1262768287       -1.5262015307       -0.7390774876
 C          0.6563993844       -0.1535323634       -0.2841645928
 H          0.5321407853        0.5112057035       -1.1470431981
 C         -0.6590026292       -0.2218657148        0.4945278595
 O         -1.6715373546       -0.5412061787       -0.4532826621
 N         -2.9510288854       -0.5902876522        0.0177654202
 O         -3.1169119944       -0.3616499282        1.1734218630
 O         -3.7567101503       -0.8620845309       -0.8116134506
 O          1.5925912624        0.4391065201        0.6287721463
 N          2.6746879515        1.0813287412        0.1034517384
 O          2.7811582711        1.1158669189       -1.0803383056
 O          3.3965411012        1.5423912009        0.9265688301
 H          2.0126473297       -1.4363156241       -1.3610702420
 H          1.3532762768       -2.1471719181        0.1229574947
 H          0.3371537747       -1.9893251082       -1.3222495223
 H         -0.6106092890       -0.9931641319        1.2681553428
 H         -0.8747149798        0.7410128665        0.9671889170
  17
        -39.50781934
 C          0.8299739960       -1.6453303283       -0.1493564746
 C          0.4354656062       -0.2823215970       -0.7036167480
 H         -0.0553942626       -0.3887001289       -1.6765807245
 C         -0.5052887642        0.5138100607        0.2241821141
 O         -1.8579799663        0.4002595709       -0.1990769719
 N         -2.6217525475       -0.6115902192        0.3257792908
 O         -2.1040321528       -1.3604957619        1.0880962555
 O         -3.7426242518       -0.6042155724       -0.0657433445
 O          1.5912392606        0.4916688340       -1.0648086945
 N          2.4489174356        0.9082703028       -0.0914256228
 O          2.1529507487        0.7058377155        1.0431333242
 O          3.4149780898        1.4562303792       -0.5152027296
 H         -0.0574922503       -2.2536987779       -0.0079337872
 H          1.4940170553       -2.1471674330       -0.8475043791
 H          1.3276294043       -1.5448354812        0.8117059422
 H         -0.4070335524        0.1858974970        1.2627544856
 H         -0.2996994918        1.5828099444        0.1477012288
  17
        -39.50778785
 C          1.2827801137       -1.4954553101        0.9764193515
 C          0.7776576168       -0.8378688939       -0.2989737779
 H          0.5215417631       -1.6024357210       -1.0385829382
 C         -0.4682842238        0.0254977787       -0.0561015836
 O         -1.5434419559       -0.8920706311        0.1221526120
 N         -2.7814366487       -0.3507464964        0.2959522278
 O         -2.8675875931        0.8363733112        0.2726573914
 O         -3.6406116845       -1.1565302484        0.4507459895
 O          1.7957595327       -0.1010313548       -0.9891532036
 N          2.3684627898        0.9902977219       -0.4025860033
 O          1.9434183542        1.3552521543        0.6463912034
 O          3.2470672683        1.4631964189       -1.0476535106
 H          1.5301815932       -0.7547549093        1.7322255694
 H          0.4996113974       -2.1412590114        1.3598060019
 H          2.1615206256       -2.0958129438        0.7600593609
 H         -0.3654281355        0.6510629196        0.8362049199
 H         -0.6697377960        0.6640745116       -0.9232023384
  17
        -39.50632984
 C          0.3010051960        0.1792196021        1.5483364402
 C          0.7374132082       -0.5061332744        0.2592070751
 H          1.5910807874       -1.1602776851        0.4655177903
 C         -0.3900631301       -1.2958010778       -0.4454585308
 O         -1.5374259898       -1.4700717239        0.3634003471
 N         -2.5348824477       -0.5283061617        0.2845372286
 O         -2.3869905144        0.3785177231       -0.4683016037
 O         -3.4499192716       -0.7558151817        1.0060643277
 O          1.1523206948        0.4721865224       -0.7131801569
 N          2.4037168325        0.9893322901       -0.6111322430
 O          3.0920514297        0.6133775756        0.2849267216
 O          2.6655757702        1.7774833693       -1.4622537208
 H         -0.4247344745        0.9614591534        1.3360006230
 H         -0.1334447402       -0.5537657425        2.2212262524
 H          1.1628433247        0.6271592925        2.0358560595
 H         -0.6581641914       -0.7583405831       -1.3611059465
 H         -0.0694492561       -2.3082881675       -0.6857600895
