  17
        -39.51389570
 C          1.6668077929       -2.4502713189       -0.3299538491
 C          0.8224342430       -1.1909512706       -0.2297159674
 H          0.4209568669       -0.9057964108       -1.2095991164
 C         -0.3228016481       -1.3723303345        0.7745831204
 O         -1.0859100443       -0.1825007909        0.9576637056
 N         -2.0018848164        0.1352153758       -0.0119624516
 O         -2.1046583050       -0.6105364960       -0.9311307682
 O         -2.5932216432        1.1405980164        0.2055809548
 O          1.6976349545       -0.1426753832        0.2265854073
 N          1.4175800709        1.1340700322       -0.1205519604
 O          2.2080576591        1.9269640277        0.2780177653
 O          0.4394385153        1.3350184975       -0.7773801608
 H          1.0559214283       -3.2679655208       -0.6950907306
 H          2.4886734634       -2.2854138628       -1.0190269648
 H          2.0723253875       -2.7033193856        0.6439161728
 H         -0.9717485683       -2.1840056733        0.4373007243
 H          0.0740087407       -1.5799021394        1.7684360779
