! pbe def2-sv(p) def2/J RI DEFGRID1 loosescf d4 GCP(DFT/SV(P)) printgap
%output
    printlevel normal
end
* xyz 0 1
C 4.5467285218 -1.6525610672 1.0381041263
C 4.0556062595 -1.8731458545 -0.3758104377
O 3.6742523639 -0.6420350743 -1.0397617457
P 2.6016532333 0.4047936517 -0.5471641428
S 2.1219653694 1.6209939185 -2.0043352431
O 3.3021144632 1.0865491509 0.7045927302
C 2.9024814045 2.3662191607 1.2216535724
C 1.5656786061 2.3013178198 1.9318159076
S 1.0294926861 -0.7730328692 0.2691284274
C 0.0962621812 -0.9640978089 -1.2889261186
S -1.5381357739 -1.6428606469 -0.9875145771
P -2.4773958878 0.0767092515 -0.1200844343
S -1.5224627271 1.7649348363 -0.3990646915
O -2.7582421652 -0.3128087747 1.3952606311
C -1.7354492141 -0.2840739321 2.4098179867
C -2.4224495447 -0.3711972063 3.7573639718
O -3.9279290573 0.1223995986 -0.7234977373
C -5.0286496885 -0.7399288743 -0.3362988242
C -4.7470536972 -2.200242488 -0.6155614946
H 4.9188145779 -2.5928221235 1.4332813535
H 5.3450216346 -0.9154066329 1.0493092005
H 3.7323321289 -1.2998146055 1.6672910013
H 3.1956342242 -2.5480640332 -0.3839479228
H 4.842086982 -2.2665201697 -1.0214485917
H 3.7091720125 2.6318325956 1.9065790888
H 2.8643379236 3.0823696286 0.3945064175
H 1.3820285516 3.2437602351 2.4375621531
H 0.7658707707 2.1373109825 1.2099878987
H 1.5638019994 1.4932756055 2.6591879003
H 0.610568717 -1.6663329548 -1.9413211054
H 0.0125849244 0.0206536733 -1.7564543888
H -1.0607762054 -1.1295885236 2.2461593395
H -1.1684134014 0.6462622917 2.306255209
H -2.9970852771 -1.2901559022 3.823912381
H -1.6706585675 -0.3605208623 4.5392920634
H -3.090676304 0.4747191564 3.8913391778
H -5.2327173425 -0.574240757 0.7226541619
H -5.8571209615 -0.3657933038 -0.9395855525
H -4.4837997052 -2.3443345132 -1.6602430258
H -3.9231404901 -2.5527128759 0.0022974483
H -5.634721748 -2.7818025343 -0.3867024785
*
