! pbe def2-sv(p) def2/J RI DEFGRID1 loosescf d4 GCP(DFT/SV(P)) printgap
%output
    printlevel normal
end
* xyz 0 1
C 0.606377198 1.6992921007 -0.0243720376
C 1.3978377711 0.4034627867 -0.2206414297
H 1.6538635629 0.2851155594 -1.2797536774
C 0.5434473327 -0.8066512038 0.2013522746
H 0.3469779907 -0.7764705783 1.2848622399
C -0.8093020496 -0.7631620914 -0.5157987866
H -0.6225138493 -0.8868659347 -1.5923891869
C -1.470693191 0.6180510885 -0.2961311214
H -2.3545156424 0.7031682291 -0.9447508312
O -0.6257331461 1.6597642705 -0.7278161129
O -1.8071524806 0.7419176393 1.0461136455
O -1.6090649204 -1.799131692 -0.0160164245
O 1.1918185933 -2.0081534495 -0.1398940258
O 2.6252610866 0.4151855313 0.4646350079
H 1.1483336427 2.5534385829 -0.4295695687
H 0.4158886749 1.850269124 1.0462316085
H -2.3999821645 1.4977820908 1.1780128695
H -2.4026121979 -1.9004401268 -0.5606271689
H 2.1183893594 -1.9398849723 0.1405420644
H 2.4760196957 0.6195590922 1.4000525066
*
