  27
        -31.71026712
 C         -3.8988115531       -1.5437409722       -0.2189569587
 C         -3.2803102367       -0.1892834108       -0.5439823783
 C         -2.0020453094        0.0573998385        0.2538928548
 C         -1.3782069531        1.4120298174       -0.0701548066
 C         -0.0921166512        1.6677064617        0.7273386483
 C          0.9892285522        0.6944151838        0.3542741077
 C          1.6849841670        0.8455766182       -0.8397147886
 C          2.6607812811       -0.0617231068       -1.2106082018
 C          2.9567965704       -1.1375178829       -0.3900031173
 C          2.2720908406       -1.2971227277        0.8023758459
 C          1.2957423914       -0.3872544001        1.1698590258
 H         -4.8045409181       -1.7006304346       -0.7996366161
 H         -3.1994911491       -2.3448599591       -0.4479591518
 H         -4.1524544071       -1.6028330449        0.8371282812
 H         -3.0521754887       -0.1415905418       -1.6112533551
 H         -4.0016098027        0.6013217805       -0.3242149750
 H         -1.2813602353       -0.7337301168        0.0333938854
 H         -2.2303309294        0.0103030772        1.3214668411
 H         -1.1534480785        1.4578337776       -1.1380568752
 H         -2.0974145331        2.2027735239        0.1546520438
 H         -0.3103771828        1.5880195043        1.7937516610
 H          0.2499085975        2.6846021512        0.5229087651
 H          1.4604461811        1.6851352066       -1.4822186963
 H          3.1933308546        0.0703344142       -2.1410993471
 H          3.7186412824       -1.8465662503       -0.6780592332
 H          2.4986999234       -2.1329060238        1.4481035200
 H          0.7650267103       -0.5180031447        2.1021039700
