! pbe def2-sv(p) def2/J RI DEFGRID1 loosescf d4 GCP(DFT/SV(P)) printgap
%output
    printlevel normal
end
* xyz 0 1
C 2.5896262894 -0.5925356608 -2.7245302769
C 2.7374327753 0.6587212243 -1.8828402492
O 3.0871524603 0.324108186 -0.5258739607
P 2.0707521686 0.2254082189 0.685176996
S 1.0132950862 1.8146062313 1.1065210116
O 3.0247079193 -0.0956300755 1.8988955714
C 3.9574257293 -1.2046964371 1.9242588737
C 5.3390798663 -0.7613812954 1.4893686839
S 0.99053901 -1.5852842585 0.3618660455
C -0.3842116889 -1.2601135908 1.5104221355
S -2.0073701212 -1.5998690447 0.7836488279
P -2.2170653815 0.0770526961 -0.4720426882
S -0.8325759801 0.5336335381 -1.7904767268
O -2.4755769681 1.2049217977 0.6090519572
C -2.4794163454 2.6117446854 0.2880959878
C -2.3151095409 3.3854151651 1.5788308208
O -3.6742919309 -0.1085545774 -1.0801124277
C -4.1668656071 -1.2776542975 -1.76436967
C -3.1831921101 -1.8428587748 -2.7669349355
H 2.4239282798 -0.3021212907 -3.7566840909
H 3.487470651 -1.1999629311 -2.6567470993
H 1.7358544814 -1.1759247843 -2.3880929144
H 1.8148635324 1.2459679698 -1.8894430646
H 3.5647213107 1.2788646863 -2.2330672207
H 3.9560963546 -1.5331225579 2.9651457298
H 3.574645733 -2.002939399 1.2819308812
H 6.0260158967 -1.596137467 1.5878799949
H 5.3223046449 -0.4297329266 0.4549155566
H 5.6798016839 0.0599828846 2.1138599686
H -0.3364903444 -0.2134604021 1.8220587298
H -0.2980332754 -1.9347158456 2.3581478968
H -1.6551507411 2.8156871018 -0.4038939473
H -3.4286635873 2.8398456748 -0.2025535451
H -3.09023056 3.0996440744 2.2837220052
H -1.3404591577 3.175151457 2.0130746573
H -2.3876876396 4.446993761 1.36754034
H -4.4172143909 -2.0234030044 -1.0049913977
H -5.0773286393 -0.925320342 -2.2527258968
H -3.6418803467 -2.6768063062 -3.2883978143
H -2.8931692644 -1.0818913427 -3.4879391686
H -2.2871197398 -2.1942203567 -2.255707387
*
