! pbe def2-sv(p) def2/J RI DEFGRID1 loosescf d4 GCP(DFT/SV(P)) printgap
%output
    printlevel normal
end
* xyz 0 1
C 4.4912406805 1.8630783771 0.160446279
C 4.2196748524 0.7186080566 -0.7941609611
O 3.3361011521 -0.2756792404 -0.249512178
P 1.9292864907 0.0091100969 0.4530751826
S 1.9865761611 0.688831597 2.2894375903
O 1.2893162154 -1.4289479402 0.27669702
C 1.1275208315 -2.340710557 1.3729385246
C 2.4263009063 -3.0625990783 1.662975573
S 0.8955952616 1.1867357675 -0.9793633778
C 0.4498569659 -0.0936856387 -2.1683856521
S -0.9188817778 -1.2225837107 -1.6699369084
P -2.0927251127 -0.0912583778 -0.3590099687
S -3.8536789605 -0.8712472022 -0.000989238
O -2.153119994 1.4143284641 -0.8847122906
C -3.190186964 1.8727980981 -1.7689119494
C -2.8929728282 1.5076432794 -3.2094628795
O -1.1204071786 0.0552085958 0.8971150407
C -1.6021006015 0.7178821925 2.0923282221
C -2.0308533198 -0.2939658593 3.134444087
H 3.5744821056 2.4228338622 0.3454728503
H 4.8621014957 1.4879107896 1.1115255647
H 5.2297185425 2.5282791324 -0.2754929303
H 5.1306578837 0.1593572339 -1.0151530163
H 3.7806558881 1.0953353087 -1.7228115337
H 0.789995998 -1.7813969303 2.2518253408
H 0.3400276198 -3.0228643653 1.0464848654
H 2.2689683431 -3.7847157816 2.4578157072
H 2.7787152423 -3.5733603765 0.7711394771
H 3.1795571038 -2.3414469055 1.9781415251
H 1.298552933 -0.7485429406 -2.3537034621
H 0.1483046077 0.4288752639 -3.0726721589
H -4.141608745 1.4377747009 -1.444094209
H -3.2064129993 2.9536110364 -1.6226788627
H -1.9338073016 1.9208152731 -3.5100086746
H -2.8731892212 0.4245887048 -3.3240996491
H -3.6715804634 1.9134372757 -3.8472667284
H -0.7569730691 1.314799122 2.4431369133
H -2.4291700391 1.3791424175 1.8212938284
H -2.8408609612 -0.911158787 2.7512727615
H -1.1947502023 -0.9338838922 3.4040169183
H -2.3722690116 0.2349410381 4.0185181064
*
