! wb97x-v def2-tzvp def2/J RIJCOSX DEFGRID2 scfconv7 GCP(DFT/TZ) printgap
%output
    printlevel normal
end
%cpcm
    smd true
    smdsolvent "water"
end
* xyz 0 1
C -0.663044248872894 1.024969229751597 3.189224321349679e-05
C 0.663038911551044 1.0249702457567071 -3.829995469447469e-05
Cl 1.6452809779587154 -0.4079517604549962 -0.00013478615008208724
Cl -1.645285345703416 -0.40795343252805877 0.0001375166003735282
H -1.2190240923543068 1.9564416965194922 9.768373640136749e-05
H 1.2190182005969459 1.9564433105427408 -9.866307778055896e-05
*
