! pbe def2-sv(p) def2/J RI DEFGRID1 loosescf d4 GCP(DFT/SV(P)) printgap
%output
    printlevel normal
end
* xyz 0 1
C 1.8937471342 -1.8418607405 -2.8921964431
C 2.2691749507 -0.4342281371 -2.4698323487
O 3.0624209103 -0.4794618431 -1.2646838534
P 2.4949949372 0.0084976325 0.1369120364
S 1.995922755 1.8983291064 0.2617782247
O 3.6922667729 -0.3225396614 1.1021691017
C 4.3060180173 -1.6368381289 1.2066220649
C 3.8759131765 -2.3195926977 2.4895654839
S 0.9432504967 -1.3835411614 0.5425817992
C -0.0436761809 -0.4201985936 1.7325211749
S -1.8108312422 -0.6648883245 1.472624273
P -2.0569036907 0.7930757932 -0.0654805527
S -1.5431361583 2.6007349755 0.4979423713
O -3.5715042797 0.6167541294 -0.494828154
C -4.6393345315 1.0663799858 0.3649292429
C -5.8959782645 1.1762503165 -0.4743678897
O -1.2654508888 0.3005081693 -1.3361226792
C -1.7584141383 -0.6706921597 -2.3017101928
C -2.0173828853 -2.0316920843 -1.6920882664
H 1.3524493527 -1.8012469738 -3.8319173492
H 2.7933294266 -2.4355977484 -3.0266194502
H 1.2715985798 -2.3130249215 -2.1352481115
H 1.3877984747 0.1915240089 -2.2947528517
H 2.9040110822 0.0493259071 -3.2150604629
H 4.0383821002 -2.2273854959 0.3290701236
H 5.3782943054 -1.4365143088 1.2031213715
H 4.4446277742 -3.2364188836 2.6081183491
H 4.0667281833 -1.6688231028 3.3386290649
H 2.8168053611 -2.5628922718 2.4595635442
H 0.2014292694 0.6398934631 1.6081521916
H 0.1773383939 -0.76337375 2.7396291408
H -4.7558865059 0.3352482098 1.1690202736
H -4.3554578091 2.0316959496 0.7968946605
H -6.7176468213 1.4956473134 0.1580356105
H -5.7527827391 1.9037651984 -1.2684182148
H -6.1348720516 0.2129757529 -0.915162834
H -2.6650126697 -0.2632069976 -2.7511297677
H -0.9587513667 -0.706095071 -3.0428822165
H -2.2674275559 -2.7266723065 -2.4875115894
H -1.1369420541 -2.3921794078 -1.1655218786
H -2.8469177651 -1.9826496634 -0.9906728839
*
