! pbe def2-sv(p) def2/J RI DEFGRID1 loosescf d4 GCP(DFT/SV(P)) printgap
%output
    printlevel normal
end
* xyz 0 1
C 5.8173373934 0.4145959916 0.1378276607
C 4.4420758111 0.0958927012 0.6879526167
O 3.5199773926 0.0584930297 -0.420739472
P 2.0954033627 -0.6285671529 -0.2716773565
S 2.1340479401 -2.4397915807 0.4726741927
O 1.5373335135 -0.5863319459 -1.7425928084
C 1.905748744 0.382085452 -2.7588122366
C 1.6415732121 1.8122397428 -2.3410816474
S 0.9787340204 0.7745857008 0.8898555093
C 0.0296411006 -0.3858567094 1.8988894834
S -1.2050484235 -1.3437264849 0.9697260176
P -2.3786044945 0.2359869246 0.1834774856
S -1.8780516112 1.0895938715 -1.5099484406
O -2.4770503085 1.175871644 1.4478910341
C -2.5773212111 2.6182580469 1.379323602
C -1.4916301182 3.2352195187 2.2377509364
O -3.8441646327 -0.3895593787 0.1425550891
C -4.3455615238 -1.0937414012 -1.0030612258
C -3.6301359464 -2.4138263429 -1.209348486
H 5.8006852273 1.3699778928 -0.3784204446
H 6.5254515827 0.4617801058 0.9584984339
H 6.1290582267 -0.3580855365 -0.5593367094
H 4.1024975812 0.8649462413 1.3869909814
H 4.4247872473 -0.8783904126 1.1875218449
H 2.9605955823 0.2299727359 -2.9947913836
H 1.2841868267 0.095514764 -3.6084023459
H 2.2320950981 2.0689837487 -1.4638536307
H 1.9144463344 2.4720940569 -3.1585156655
H 0.5878419236 1.9523681221 -2.1123238557
H -0.4652201954 0.1985215887 2.6699617056
H 0.7004002475 -1.1316555923 2.3259245181
H -2.4808811286 2.9308870924 0.3341975245
H -3.5733034978 2.8728004221 1.7459560331
H -1.590203871 4.3153222399 2.2074977863
H -1.5873496356 2.8960329181 3.2652860561
H -0.5096596976 2.9556765885 1.8606487694
H -5.4043253447 -1.2378513276 -0.7842974015
H -4.2304453208 -0.4516238553 -1.8830830918
H -4.0842940706 -2.9488705742 -2.0371721443
H -2.578644605 -2.234697327 -1.438964799
H -3.6873652738 -3.0211998387 -0.3093795666
*
