! pbe def2-sv(p) def2/J RI DEFGRID1 loosescf d4 GCP(DFT/SV(P)) printgap
%output
    printlevel normal
end
* xyz 0 1
C 3.5100648935 -1.1429333801 1.9898134315
C 2.7590187039 -2.0579642663 1.0366429601
O 2.5420255206 -1.4142772516 -0.2358481688
C 1.5477700948 -0.5803337641 -0.3648527457
O 0.7707711917 -0.2726292057 0.5293826613
C 1.4281192033 0.0032573249 -1.749533979
C 0.2980064945 1.0212156657 -1.7383171162
H 0.2886185859 1.6064376652 -2.6614699696
C 0.4039565489 1.9730737645 -0.5541248259
O -0.5434272128 2.3960044327 0.0666338505
O 1.6577550251 2.3187885571 -0.3407230199
C 1.9391464375 3.2473116996 0.7264459769
C 3.2162570239 3.9912001507 0.3870566515
S -1.3611901186 0.2564224411 -1.7367970997
P -1.7289553818 -0.8037473564 0.064631682
S -0.9590682435 -2.5861845449 0.4082457076
O -1.8780289849 0.1964169216 1.2813557097
C -1.1756428432 0.1205084665 2.5184246646
O -3.309238531 -0.9564849522 -0.1781258367
C -3.8406080723 -1.8472463396 -1.161626715
H 2.9103115233 -0.2641367486 2.2169085896
H 3.7106635466 -1.6769477939 2.9125179647
H 4.4497072476 -0.8286730634 1.544227335
H 1.7893873336 -2.3525474352 1.4480574222
H 3.3422616847 -2.9441741602 0.788794731
H 1.225000564 -0.7961436115 -2.4639359726
H 2.374015778 0.4758132393 -2.0174654544
H 1.0845430687 3.9223159342 0.8328482648
H 2.0441789415 2.6683171687 1.6496350101
H 3.4496663943 4.6804086507 1.1917352057
H 4.0362199731 3.2899665001 0.2668142261
H 3.0904863656 4.5491893853 -0.5360335724
H -1.9101444819 0.3089125331 3.2985718496
H -0.4001069133 0.8851408351 2.5264470585
H -0.7269873181 -0.8666025917 2.6447793449
H -4.8920380223 -1.9654300728 -0.911473552
H -3.3281184522 -2.8104481655 -1.1103056206
H -3.7287015158 -1.4180243464 -2.157201083
*
