! pbe def2-sv(p) def2/J RI DEFGRID1 loosescf d4 GCP(DFT/SV(P)) printgap
%output
    printlevel normal
end
* xyz 0 1
C 5.0031614685 -0.5219369094 -2.6277784868
C 3.5212316569 -0.8282708785 -2.5287182729
O 3.1532587612 -0.8747145432 -1.1395535896
P 1.8218703595 -0.2383949105 -0.5336039655
S 1.3283430322 1.4045836122 -1.4936014007
O 2.192138765 -0.1258416845 0.9982487655
C 2.9560406421 0.9943953519 1.5005360521
C 2.7766197162 1.0435292092 3.0026401229
S 0.575683631 -1.9456275034 -0.4733516555
C -0.2900390189 -1.8594031781 1.1336646143
S -2.0651819734 -1.5564106322 0.9817427574
P -1.9115330341 0.4981990477 0.4637334037
S -0.6174371089 1.5214657535 1.5101263807
O -3.4082424094 1.0277641969 0.5187391971
C -4.0254428639 1.5194820193 1.7237731795
C -4.2009611338 0.4360121941 2.7675069204
O -1.6249941868 0.5080232179 -1.0857929572
C -2.5410255022 -0.0734566432 -2.052117362
C -1.7270103177 -0.64882585 -3.1920370201
H 5.301956797 -0.5484414569 -3.6704753263
H 5.2087626719 0.4654895447 -2.2225385748
H 5.5726290492 -1.2595653215 -2.0696933522
H 3.2860252363 -1.8046711615 -2.9583359784
H 2.9246163736 -0.0550655317 -3.025043188
H 4.0002145934 0.8368552305 1.2206337131
H 2.5867317706 1.90867934 1.0231809144
H 3.0810943149 0.099213783 3.4443315767
H 3.3857080179 1.8460126981 3.4050963673
H 1.7331796469 1.2334114999 3.2430520868
H 0.1633771159 -1.0754097346 1.7392114628
H -0.1828785408 -2.8364470814 1.5966069724
H -3.4122726125 2.337121103 2.114953542
H -4.9848108924 1.9077554619 1.3787341739
H -4.7041653431 -0.4264996455 2.3379026365
H -3.2303836821 0.1237025547 3.1490584196
H -4.7921571872 0.8270441467 3.5893336674
H -3.1369599001 -0.8439098836 -1.5537974238
H -3.1948153408 0.732029435 -2.3904187606
H -2.3993823364 -0.9926102275 -3.9710843955
H -1.0671036281 0.1162138398 -3.5938691728
H -1.121624825 -1.4829310644 -2.8443672669
*
