! pbe def2-sv(p) def2/J RI DEFGRID1 loosescf d4 GCP(DFT/SV(P)) printgap
%output
    printlevel normal
end
* xyz 0 1
C 3.7061179194 1.7556015515 -1.7112489598
C 2.4031691581 1.0745930907 -2.0696497759
O 2.2384299699 -0.1781033759 -1.3766431566
P 2.1154046591 -0.2898351488 0.1964908893
S 1.1463994643 1.1599876654 1.1091229242
O 3.630144985 -0.4261406558 0.6552576191
C 4.0420115418 -0.265129257 2.0224151652
C 3.5238736665 -1.3821834997 2.9051662261
S 1.4182401605 -2.2721495704 0.3203158115
C -0.2422405575 -2.0923181503 -0.3815625731
S -1.4921797386 -1.5008600773 0.8147597631
P -2.104532316 0.2915379143 -0.1230267007
S -1.1572362721 0.8239115727 -1.7612442698
O -2.0710881735 1.3251678559 1.0703434026
C -1.9199944694 2.7423623601 0.8746453281
C -3.170719687 3.3521479482 0.2786411246
O -3.6824081432 0.1159899797 -0.269197314
C -4.3571645381 -1.0122757966 -0.850072261
C -3.9373128946 -1.2828783463 -2.2808150118
H 3.8340790584 2.6349595329 -2.3346369586
H 3.6884674669 2.0619616053 -0.6657876882
H 4.5390641216 1.0746018018 -1.8653319064
H 2.3638232865 0.7922766621 -3.1225535213
H 1.5466914902 1.7152185331 -1.8362508145
H 5.1314563996 -0.2633356398 1.9697652488
H 3.6830506052 0.7054724277 2.3806194117
H 3.948833516 -1.2841014464 3.8989483289
H 2.4380441515 -1.3242341056 2.9784315387
H 3.7933682086 -2.3491879694 2.4879625331
H -0.5353239049 -3.0915262741 -0.6916810152
H -0.2082364658 -1.4003153177 -1.2280307928
H -1.70821928 3.1237926374 1.874326411
H -1.0500678378 2.9174689988 0.2328323543
H -3.0464431934 4.4275518678 0.2007611865
H -3.3417704385 2.9385771931 -0.7149887004
H -4.030220365 3.1271178643 0.9042777793
H -4.1691070624 -1.8855024579 -0.2183116863
H -5.4112590044 -0.7353064316 -0.7913360754
H -4.5483467396 -2.0814532592 -2.6889680288
H -4.0602635018 -0.3893446598 -2.8881573724
H -2.8907809353 -1.5816505441 -2.3188279696
*
