! pbe def2-sv(p) def2/J RI DEFGRID1 loosescf d4 GCP(DFT/SV(P)) printgap
%output
    printlevel normal
end
* xyz 0 1
C 0.847107409 1.2794901554 -1.0069090348
C 1.4403088184 0.3031920395 0.0101896192
H 2.4589580144 0.0424870929 -0.3049080435
C 0.6261989039 -1.0022386142 0.0197954449
H 0.5913354878 -1.3757345721 1.0531175075
C -0.8241505568 -0.7613389577 -0.4407126812
H -0.8570690957 -0.8377822342 -1.540081264
C -1.2840182479 0.661853398 -0.0644121607
H -2.3143849283 0.8263964007 -0.4091943751
O -0.5071547603 1.6310125247 -0.7244532585
O -1.3308838723 0.8696125494 1.3104995905
O -1.6209687655 -1.757568835 0.1472523334
O 1.2837564248 -1.9191933203 -0.8183639199
O 1.4416694618 0.8249733371 1.3210174839
H 0.909614574 0.8231724135 -2.0021094679
H 1.3885916398 2.2272535103 -1.012667665
H -0.4188472736 0.880097927 1.6656669169
H -2.558438648 -1.5737582354 -0.003762973
H 0.83167584 -2.7736660898 -0.7675463057
H 2.0150453961 1.604397582 1.3633491368
*
