! pbe def2-sv(p) def2/J RI DEFGRID1 loosescf d4 GCP(DFT/SV(P)) printgap
%output
    printlevel normal
end
* xyz 0 1
C 4.3033585521 0.0971483022 -2.2806853218
C 2.9475122399 -0.5463695752 -2.0783598658
O 2.1173077681 0.2675138916 -1.2113165735
P 1.9900241825 0.0587340955 0.3401031093
S 0.8937444511 1.4357316384 1.1887248724
O 3.4961514416 0.0238853926 0.8391875505
C 3.8141114175 -0.0824212201 2.2429559142
C 5.2684386233 0.3029971345 2.4207799195
S 1.4260858481 -1.9826121372 0.6239594798
C -0.2335071015 -1.9549431743 -0.0908052612
S -1.4783414509 -1.1749296377 0.9985055744
P -2.2750610344 0.1673575664 -0.4038336527
S -1.09248146 0.8583616843 -1.8190524861
O -3.0950131625 1.2619036806 0.3991626483
C -2.5469390607 2.4283866004 1.0390547507
C -2.3609522691 2.1827217119 2.5224849341
O -3.4491018575 -0.742609099 -0.9502305297
C -4.2703096997 -0.3472621423 -2.07270432
C -4.8451575034 -1.6030931536 -2.6948139005
H 4.1819683747 1.1045246015 -2.6696753376
H 4.8405190821 0.1474657397 -1.3375289595
H 4.8736581756 -0.495193772 -2.9893950883
H 3.0436386581 -1.5447444875 -1.6424441367
H 2.3856180629 -0.5975286677 -3.0132156765
H 3.1493650062 0.5848395316 2.801292056
H 3.6312174179 -1.1140413026 2.5545262701
H 5.4278046095 1.3242034332 2.0859004533
H 5.5295308575 0.2262114141 3.471027239
H 5.9035085017 -0.36228333 1.8431453377
H -0.5103485622 -2.9951770161 -0.2383313719
H -0.2141979439 -1.4049503164 -1.0352136106
H -1.598618362 2.6944600907 0.5623070755
H -3.2820667223 3.2141233563 0.854439978
H -3.2922769649 1.8375258136 2.9622188851
H -1.5886212497 1.4341607867 2.686013328
H -2.0522141993 3.1076022021 2.9981898405
H -5.0557477807 0.311582908 -1.6959763564
H -3.64608997 0.2065280607 -2.7825844779
H -5.4120552247 -2.1561057903 -1.9516611934
H -5.498756959 -1.3261596327 -3.5155544473
H -4.0454049447 -2.2351322675 -3.0701352319
*
