! r2scan-3c def2/J RI DEFGRID2 scfconv6 printgap
%output
    printlevel normal
end
* xyz 0 1
C 3.9454086505 -2.0742389638 -2.2293630119
C 4.4949479283 -1.7459236355 -0.8566455373
O 3.4579824595 -1.4050372733 0.0830468558
P 2.5514055873 -0.1070465237 -0.0621884454
S 3.4487380646 1.5153896939 -0.6777410662
O 1.9720342992 0.0438991319 1.3945918405
C 1.347835021 -1.0446428242 2.1227988257
C 0.4233251426 -0.4393289749 3.1583608677
S 0.9157363487 -0.7752269888 -1.2633990693
C 0.2655813168 0.8699506514 -1.6378208428
S -0.3474315231 1.7402032389 -0.1672724334
P -2.1815448603 0.699130056 -0.0292387116
S -3.2812047167 0.6193985399 -1.6512457292
O -2.7402502904 1.534543605 1.194954558
C -4.1539754296 1.6788996557 1.4447675044
C -4.795691558 0.3629016247 1.8328060408
O -1.814735632 -0.7173739105 0.5933662628
C -2.1049769152 -1.9981753572 -0.0026074393
C -2.6405196179 -2.9243913795 1.0710426198
H 3.1640053112 -2.8264042156 -2.1561922108
H 3.5302440146 -1.1785126356 -2.6887556648
H 4.7492094673 -2.4479064622 -2.8554924262
H 5.1957866725 -0.9077459878 -0.9131514268
H 4.9817950496 -2.6086828204 -0.3998191685
H 0.8007106786 -1.6730167572 1.4138477966
H 2.1450452752 -1.6302268281 2.5843403479
H -0.3748338228 0.1177095652 2.6722600264
H -0.0081151111 -1.2329885349 3.7599230205
H 0.9786974635 0.239476854 3.7992532208
H -0.5448967572 0.7422566199 -2.3558307605
H 1.0673169614 1.4828451246 -2.0495297482
H -4.2026615426 2.410140552 2.2527118372
H -4.6247898009 2.0873526398 0.5451803999
H -5.8322643838 0.5346113829 2.1058947987
H -4.7632686901 -0.3228130964 0.9864949055
H -4.2680309799 -0.07852117 2.6743485373
H -2.828019907 -1.8549007689 -0.8124458134
H -1.1724476378 -2.3794277114 -0.4266514518
H -1.9267616243 -3.0000875212 1.8862023922
H -3.5839117853 -2.5543314267 1.4619804898
H -2.7960674478 -3.9074952533 0.6387468079
*
