! pbe def2-sv(p) def2/J RI DEFGRID1 loosescf d4 GCP(DFT/SV(P)) printgap
%output
    printlevel normal
end
* xyz 0 1
C 0.8591668999 1.3917459867 -0.5943465182
C 1.5945055868 0.1668085969 -0.0258904301
H 2.5684828734 0.0953390539 -0.522668688
C 0.7731455855 -1.1095737021 -0.317238975
H 1.1981245128 -1.9367255862 0.2685780669
C -0.6774452237 -0.9130433698 0.1467879478
H -1.2810831458 -1.7600867854 -0.2113324092
C -1.2495159683 0.3712871332 -0.4752074884
H -1.254383544 0.2553014775 -1.5782837302
O -0.4705578499 1.4910150444 -0.1244221812
O -2.524570825 0.5558786932 0.0291948434
O -0.7003587661 -0.8359256918 1.5486909281
O 0.7366018254 -1.4114538199 -1.6901982028
O 1.8777946483 0.2931121428 1.3430889483
H 0.8573775712 1.3273423938 -1.6907143255
H 1.3499777196 2.3085089175 -0.26828319
H -2.8188438064 1.4602776977 -0.1606230276
H -1.5844918167 -0.5363956318 1.8156638935
H 1.589940111 -1.7751364464 -1.967730671
H 1.0459242651 0.1968149827 1.8386254085
*
