! pbe def2-sv(p) def2/J RI DEFGRID1 loosescf d4 GCP(DFT/SV(P)) printgap
%output
    printlevel normal
end
* xyz 0 1
C 3.0920614292 -3.3561562622 1.1197224029
C 2.9768108543 -1.8488314376 1.2535981289
O 2.6238171787 -1.298465362 -0.0306509052
C 1.6563614651 -0.42803736 -0.1223183407
O 1.0497945366 0.0573667272 0.8211085633
C 1.3851603669 -0.0135209151 -1.551121587
C 0.3052729272 1.057649986 -1.5704650334
H 0.309528283 1.5864053316 -2.5278339258
C 0.5026928991 2.0838398609 -0.4604684319
O -0.3958191984 2.5270128265 0.2163884814
O 1.7588519458 2.479935425 -0.4083271774
C 2.108401504 3.4835503049 0.5667982183
C 1.798275522 4.8806034367 0.0544744903
S -1.3985636794 0.4139148116 -1.4851563544
P -1.5556568188 -0.9382584355 0.1467910392
S -0.4737234666 -2.5696459832 0.1361686321
O -1.5849514177 -0.2090426266 1.5460480542
C -2.4914800565 0.861668714 1.8739373586
O -3.1164120359 -1.2696272981 -0.0231720644
C -3.597324132 -2.0760360612 -1.1034964131
H 3.3962485324 -3.7783455565 2.0714911962
H 2.1300497224 -3.7749716126 0.8328852131
H 3.8259377335 -3.6051039506 0.3597557415
H 3.9319325002 -1.3983653901 1.5354505439
H 2.2075875245 -1.5657532431 1.9781483217
H 1.0888442516 -0.8909481457 -2.129007168
H 2.3132805523 0.3766777965 -1.9718572455
H 1.5608238917 3.2717929555 1.4897304192
H 3.178250694 3.3431873431 0.7220082238
H 2.3071730849 5.0539517871 -0.8895988128
H 0.7268865376 4.9970792499 -0.0910257828
H 2.1360178913 5.6096883104 0.7834562824
H -2.1366194951 1.7852230425 1.4170766279
H -2.4571365732 0.9345030822 2.9578134199
H -3.496216594 0.622471113 1.531640113
H -2.9549787749 -2.9488299784 -1.2322850396
H -3.6193652432 -1.4893224556 -2.0208534746
H -4.6001643902 -2.3819689426 -0.8163668317
*
