! pbe def2-sv(p) def2/J RI DEFGRID1 loosescf d4 GCP(DFT/SV(P)) printgap
%output
    printlevel normal
end
* xyz 0 1
C 5.5603596371 -0.6247443359 -1.3305303866
C 4.4333913012 0.3038728867 -0.9255847086
O 3.218067009 -0.4701162316 -0.8523578552
P 2.0232878374 -0.0633300666 0.1076183969
S 2.570504681 0.5236997997 1.899912008
O 1.0661249073 -1.3184937587 0.0041092212
C 1.5208417258 -2.6870258892 -0.0943773476
C 2.1797646624 -3.1454251532 1.1893882013
S 0.9686911115 1.3992427665 -1.0044831414
C -0.0409570104 2.0274021732 0.3695534808
S -0.967619134 0.7354362816 1.2343266547
P -2.2535194241 0.0927449694 -0.3594146934
S -1.5559754973 -0.9291620349 -1.8717181203
O -2.9561242873 1.4250578273 -0.824757354
C -3.7892569044 2.2249046642 0.0581853019
C -3.8752858333 3.6216823358 -0.5210203532
O -3.4076659341 -0.6467047783 0.4509872882
C -3.3475106077 -2.0523254129 0.7483095313
C -2.2328762783 -2.3764180244 1.7218878653
H 5.7001992753 -1.3973107814 -0.5794119555
H 5.3308332539 -1.0945143288 -2.2827410483
H 6.4753738406 -0.0494374553 -1.4251853919
H 4.2815943814 1.094791241 -1.6640131818
H 4.6187070463 0.7556551462 0.0550847489
H 0.6060109601 -3.2426382074 -0.3097298802
H 2.2028627121 -2.7646579818 -0.942895787
H 1.5001156244 -3.0231603064 2.029612529
H 2.4585864059 -4.1903722316 1.0988094929
H 3.072629056 -2.5509655214 1.3807797117
H -0.7168998007 2.7626134981 -0.06068971
H 0.6089407182 2.475135765 1.121348125
H -4.7699464231 1.7484999003 0.1011905907
H -3.3466427284 2.2240100621 1.0582860317
H -4.5375377213 4.2205703081 0.0958045491
H -2.894581459 4.0891507941 -0.5475930022
H -4.2666249747 3.5793086146 -1.5334124036
H -4.3293221366 -2.2737255249 1.1687439556
H -3.2101703253 -2.5972681172 -0.1912059291
H -1.2688448459 -2.1557507453 1.2637562856
H -2.3310323195 -1.7791252465 2.6252253715
H -2.2701238189 -3.4303389334 1.9780146744
*
