! pbe def2-sv(p) def2/J RI DEFGRID1 loosescf d4 GCP(DFT/SV(P)) printgap
%output
    printlevel normal
end
* xyz 0 1
C 4.1867768106 2.3631301349 0.2053867904
C 3.0198658714 1.7740697242 -0.5600100619
O 2.0959335471 1.124859357 0.3493923287
P 2.0380145364 -0.4327636169 0.5734493205
S 0.672745982 -0.8445211607 1.9149721418
O 3.5521864401 -0.7741625194 0.9111541941
C 4.1502780503 -2.0814827985 0.8401366088
C 3.3843912611 -3.1220688192 1.6296048709
S 1.7934345211 -1.3233414853 -1.3561289185
C -0.001931064 -1.255625418 -1.4287285246
S -0.6096704286 0.4616637312 -1.3518190886
P -2.4791142616 0.1021890393 -0.3866526108
S -2.694631247 -1.6311327844 0.4889147721
O -3.5464874758 0.2849889763 -1.5305035226
C -3.636339384 1.4579825685 -2.377861853
C -4.647578802 2.4455693176 -1.833340093
O -2.7274886766 1.3897373849 0.512167111
C -2.0998458051 1.6101297593 1.7887495968
C -0.9450333963 2.5839288194 1.6618248945
H 3.8258670637 3.0601870489 0.9563462477
H 4.7472198558 1.5751043865 0.7012819348
H 4.8380414631 2.8864915295 -0.4875009625
H 3.3571590277 1.0475895114 -1.3043558779
H 2.4264361103 2.5495303161 -1.0478765406
H 4.2181946495 -2.3679391765 -0.2129756394
H 5.1504246236 -1.929583544 1.2498970505
H 3.923373115 -4.063718099 1.606032265
H 3.2619820336 -2.8023297756 2.6620070881
H 2.3948313244 -3.2703803541 1.1984327961
H -0.432904895 -1.8056199719 -0.5865796877
H -0.2884693557 -1.7010675212 -2.3783973838
H -2.6434860027 1.9094406785 -2.4622635595
H -3.9474639074 1.0649227827 -3.3473668466
H -4.3275367324 2.8203425831 -0.8650512118
H -4.7414076977 3.2751836609 -2.5271355643
H -5.61377434 1.9620458585 -1.7183505647
H -2.8918673389 2.0164212085 2.4208214248
H -1.7665005165 0.6520757732 2.2009075946
H -0.5751316289 2.8194005432 2.6546089919
H -0.1332545267 2.1429564216 1.0872685945
H -1.2753467474 3.4950951131 1.171433106
*
