! pbe def2-sv(p) def2/J RI DEFGRID1 loosescf d4 GCP(DFT/SV(P)) printgap
%output
    printlevel normal
end
* xyz 0 1
C 5.4130822792 -1.2443404182 -1.4143281477
C 3.9799150451 -1.5310946234 -1.0145967494
O 3.1682169563 -0.3970599023 -1.4088603141
P 1.8663396151 0.0557515137 -0.6190758043
S 1.2473782576 1.7224794008 -1.4288634481
O 2.2340884986 0.0732076456 0.9362601949
C 2.6704158069 1.2787883253 1.5907571269
C 4.0785399734 1.6519422595 1.1788049511
S 0.7459881803 -1.7406398367 -0.6808232314
C -0.1486768781 -1.8418988537 0.9126122126
S -1.9419808589 -1.7267041256 0.7284518946
P -2.0148966804 0.366675693 0.3882409937
S -0.7979106167 1.4212217637 1.5009110669
O -3.5450671889 0.7576221644 0.5384748491
C -4.1385065452 1.1044426411 1.802871739
C -4.1848416749 -0.0689467726 2.7600352317
O -1.7409747304 0.5745787679 -1.1492752661
C -2.213151002 -0.2490869026 -2.2434411414
C -3.7169095649 -0.4096512307 -2.2556080621
H 5.4672857743 -1.0582189071 -2.4830163365
H 5.7855969115 -0.3683181905 -0.8904553365
H 6.029767652 -2.1020892178 -1.1659049554
H 3.8858320917 -1.6778528276 0.0645965526
H 3.5899874993 -2.4087265333 -1.5350860165
H 1.9657885699 2.0812951132 1.3503867011
H 2.5986801931 1.043832954 2.6537435797
H 4.382527293 2.5452155972 1.715168701
H 4.7672510094 0.842265625 1.4067796073
H 4.1033624541 1.8568479839 0.1084459159
H 0.2010470256 -1.0437225967 1.567675798
H 0.0587159292 -2.825109601 1.3253956159
H -3.5689345966 1.9325628773 2.2362682167
H -5.1388858233 1.4449714133 1.5321251974
H -4.7624786449 0.2092495839 3.6356709648
H -4.644413384 -0.9305668901 2.2827660778
H -3.176752424 -0.3346753077 3.0733742707
H -1.851066074 0.2864866739 -3.1229767765
H -1.7146014929 -1.2213785305 -2.1789345701
H -4.1992456414 0.5642563854 -2.2415111333
H -4.0042809481 -0.9412744612 -3.1575445084
H -4.043197096 -0.9792751893 -1.387816999
*
