! pbe def2-sv(p) def2/J RI DEFGRID1 loosescf d4 GCP(DFT/SV(P)) printgap
%output
    printlevel normal
end
* xyz 0 1
C 4.0803281071 0.3625754714 -2.6426583071
C 2.6694221828 -0.0486493879 -2.2790550463
O 2.1843475283 0.7453723824 -1.1689468493
P 2.0795148273 0.2045810748 0.3010119236
S 1.3152410747 1.5681862662 1.4743292451
O 3.5925412836 -0.220694259 0.5714149035
C 4.0454891733 -1.0743351961 1.6375330155
C 3.7140966062 -0.5270927227 3.0104925133
S 1.0780773552 -1.6809997467 0.2632533835
C -0.2575391403 -1.3499108727 1.4513063942
S -1.9260351392 -1.5128052008 0.7701250801
P -2.0006875324 0.1954663655 -0.5038311809
S -0.8174781874 0.2570388928 -2.0598864142
O -1.7229784646 1.4491806418 0.4048192814
C -2.4470626034 1.7658533487 1.6194205007
C -3.5012901631 2.8183779124 1.3478742278
O -3.5589150242 0.3067594726 -0.7934895557
C -4.4020920786 -0.7773456467 -1.2283887262
C -3.8531573915 -1.5036220519 -2.4377964486
H 4.1068672454 1.421945347 -2.8822673756
H 4.7529225963 0.1739283008 -1.809804526
H 4.40348146 -0.2100452588 -3.5061358225
H 2.6176375012 -1.1076817365 -2.0103516871
H 1.9626668541 0.1493355196 -3.0881803207
H 3.6029181927 -2.064614484 1.4958501889
H 5.1244077875 -1.1261760464 1.4812867796
H 2.6358298128 -0.4999504447 3.1580107595
H 4.161296952 -1.1628849686 3.7676768109
H 4.0971165781 0.4849586575 3.1166877159
H -0.1135580871 -0.3413889247 1.8524589103
H -0.1988875976 -2.1031575806 2.2331579911
H -2.895168439 0.8511265535 2.0178206626
H -1.6777033763 2.1342597969 2.3026063808
H -4.237248153 2.4407775398 0.6426330798
H -3.9926936834 3.0760369175 2.2807544143
H -3.0378561699 3.7071003289 0.9282033996
H -4.5276036312 -1.46599748 -0.3882321805
H -5.3516063717 -0.2887016707 -1.4540929463
H -4.5654927805 -2.25597167 -2.7605467804
H -3.671646922 -0.8045264446 -3.2509994329
H -2.9107546214 -1.9899809749 -2.188283608
*
