! wb97x-v def2-tzvp def2/J RIJCOSX DEFGRID2 scfconv7 GCP(DFT/TZ) printgap
%output
    printlevel normal
end
* xyz 0 1
C -0.002068174330602077 -1.8174915316619444 0.16880506960966438
C -0.0006132475118315031 -0.448426087122867 -0.4451453176433595
Cl 1.4824532587963462 0.48540900382223695 0.053142133090428666
Cl -1.4818331125795836 0.48853442483154813 0.05276294344968303
H -0.8905119394823198 -2.3586712342778156 -0.16902498274680178
H 0.8853576089673515 -2.3605030737484225 -0.16877542797145265
H -0.002161071981544733 -1.7666852605534158 1.259617996268116
H -0.0004557322251928718 -0.4566413412200494 -1.5346505570948563
*
