! pbe def2-sv(p) def2/J RI DEFGRID1 loosescf d4 GCP(DFT/SV(P)) printgap
%output
    printlevel normal
end
* xyz 0 1
C 3.3716963622 -2.1431849354 1.1884647238
C 2.9283040716 -2.8658068075 -0.0729942352
O 2.6461947141 -1.9229280893 -1.1254533219
C 1.4604777685 -1.3744997636 -1.1816875283
O 0.534695924 -1.6624359041 -0.4376720285
C 1.3267564678 -0.3643122244 -2.295150031
C 0.5194141535 0.8259276303 -1.7926456897
H 0.4683961301 1.6127718686 -2.550040447
C 1.1370109721 1.4044010722 -0.5280635396
O 2.1879540806 1.0036986286 -0.0799126621
O 0.4314049962 2.3992800237 -0.0441128495
C 0.9430669663 3.0898690981 1.115007567
C 0.1843186806 4.3935030081 1.2589977102
S -1.2450493225 0.4329610027 -1.5139737199
P -1.4295417492 -0.4322513206 0.4292891427
S -0.1900149816 -0.1665395187 1.9263819376
O -2.8537526628 0.2494896489 0.7912430198
C -2.944502056 1.6244755729 1.1611307207
O -1.9379758171 -1.9206788031 0.2632176815
C -3.063091875 -2.2626009472 -0.5673936047
H 2.5655896709 -1.5159262354 1.5669830639
H 3.6373694767 -2.8700846502 1.9486506855
H 4.2266471515 -1.5078203447 0.9752967709
H 2.029179622 -3.4592518146 0.117577274
H 3.7246386234 -3.490980217 -0.4767897852
H 0.8092302437 -0.8284445766 -3.1363417969
H 2.3235925158 -0.0499788613 -2.6025131814
H 0.8078849055 2.4342923133 1.9818012475
H 2.0153361074 3.2490916783 0.9672346999
H 0.3109542857 5.0005264698 0.3674810802
H -0.8734996691 4.1969557236 1.4059675297
H 0.5696350267 4.9316405843 2.1183444276
H -3.976760332 1.7795375457 1.4641494405
H -2.6931765044 2.2586550347 0.3098255261
H -2.2665706487 1.8299379555 1.9919003922
H -2.9315415772 -1.8522568532 -1.5688783317
H -3.9792699687 -1.8764729973 -0.1239175449
H -3.0720364048 -3.3492967638 -0.5945907811
*
