! r2scan-3c def2/J RI DEFGRID2 scfconv6 printgap
%output
    printlevel normal
end
%cpcm
    smd true
    smdsolvent "water"
end
* xyz 0 1
C -0.6678461257 1.2508647728 3.20375e-05
C 0.6680565911 1.2507907461 0.0002780242
C 1.4470558586 -3.90482e-05 -0.0001207701
O 2.6688847629 3.78679e-05 -0.0001419988
C 0.6679992566 -1.250921097 5.4325e-05
C -0.6681249376 -1.2509633382 0.0001776538
C -1.4470386802 3.72783e-05 -0.0001923269
O -2.6689764998 0.0001435422 -0.0001159678
H -1.2421366976 2.165893287 0.0004116637
H 1.2425214244 2.1656963748 3.1979e-06
H 1.2424579028 -2.1658054182 0.0002344198
H -1.2426014578 -2.1659149482 0.0007174004
*
