! pbe def2-sv(p) def2/J RI DEFGRID1 loosescf d4 GCP(DFT/SV(P)) printgap
%output
    printlevel normal
end
* xyz 0 1
C 0.7229840139 -3.0876156433 0.5701306013
C 1.8091990643 -2.2571805693 1.2230189059
O 1.5987473057 -0.851017543 0.9774552483
P 2.3739642398 -0.0412799824 -0.1618611154
S 3.0128202398 -1.1165929203 -1.662656817
O 3.6039033343 0.68127167 0.5343704977
C 3.5398659566 1.8292376531 1.4111078509
C 2.7395624609 1.5578929527 2.6676737402
S 1.0088710923 1.5258377437 -0.5520587772
C 0.2065601209 0.7668404467 -1.9844873754
S -0.7943400015 -0.6825868951 -1.5738302842
P -2.1598161062 0.3171576133 -0.3011756352
S -2.645779137 2.1415291848 -0.8026704752
O -1.415560301 0.1386568911 1.1044580295
C -1.5043236996 1.1244878278 2.1486122348
C -2.8734386448 1.1212714101 2.7978462943
O -3.4380450666 -0.6171957342 -0.2418373406
C -3.4518192117 -1.9578073692 0.3060794178
C -3.2177820309 -2.9971669793 -0.7713921198
H 0.7951313225 -3.0145564375 -0.512931207
H 0.837983589 -4.1252592725 0.8658244867
H -0.2543033607 -2.7280507651 0.8803804917
H 2.7959050877 -2.5453132988 0.8485430466
H 1.7850257987 -2.35383917 2.3099668631
H 4.588414575 2.0327015966 1.6346270424
H 3.1119105822 2.6646343703 0.8506409421
H 1.7029259609 1.3520212533 2.4089674388
H 3.1501936867 0.7040835366 3.2005426972
H 2.777413723 2.4333884158 3.3082385623
H 0.9645694982 0.4267825659 -2.690227934
H -0.4301656381 1.5371612283 -2.4189429627
H -0.7216094917 0.8370210577 2.8525237469
H -1.2801119333 2.107024651 1.7214210661
H -2.8965660726 1.8600259153 3.5926550733
H -3.6303150666 1.3766497782 2.0563389486
H -3.0987149926 0.1411215275 3.2101861733
H -2.6994357804 -2.0253646688 1.0953761054
H -4.4497687254 -2.0551937556 0.7372381448
H -3.9440719975 -2.8746048839 -1.5700051389
H -2.2189189804 -2.8991101276 -1.1919272134
H -3.3246897152 -3.9868490636 -0.3384212902
*
