! pbe def2-sv(p) def2/J RI DEFGRID1 loosescf d4 GCP(DFT/SV(P)) printgap
%output
    printlevel normal
end
* xyz 0 1
C 1.8116723718 -3.2019237162 0.2010451557
C 2.7856290434 -2.2623966836 0.8832875705
O 2.1774335023 -0.9727024963 1.1050576848
P 2.545632925 0.3434894013 0.3043063619
S 3.534584757 0.0183773561 -1.3633120783
O 3.2920315272 1.1432509829 1.4545436753
C 3.4709169216 2.5708054597 1.5037127607
C 4.0841538251 3.1319059677 0.2373657751
S 0.6984360541 1.3643188999 0.1304976372
C 0.1770808941 0.6128959719 -1.4314139793
S -0.617787898 -1.0036800694 -1.2077390125
P -2.4792012774 -0.3093775607 -0.4745767062
S -2.893848993 1.5936026994 -0.7335005855
O -2.6109528972 -0.8159620559 1.0294795892
C -2.1392948196 -0.084968465 2.1753671544
C -0.9312657542 -0.7716925577 2.7817003629
O -3.3982449331 -1.345032916 -1.2348175796
C -4.8076143864 -1.1150291468 -1.4449930174
C -5.5899690305 -1.1449523851 -0.1487617609
H 2.2596267758 -4.1879224666 0.132912596
H 0.8865504062 -3.26474075 0.7670060949
H 1.5808248893 -2.845181889 -0.8006795083
H 3.6877439084 -2.1341188531 0.2775985926
H 3.0574986733 -2.6205638153 1.8774126454
H 2.4972450895 3.0289265183 1.6984934626
H 4.1273935711 2.7168018177 2.3633677237
H 3.4018822395 3.0016430016 -0.6017569308
H 4.2804920285 4.1909304794 0.3704948225
H 5.0153678045 2.6194907579 0.0070367815
H 1.0533136869 0.4531232797 -2.0618373445
H -0.5268252662 1.3047701973 -1.892062733
H -1.9106741778 0.9445771175 1.8796304057
H -2.9763684144 -0.0796008313 2.8769663178
H -0.0907312892 -0.7601836802 2.0918678909
H -0.6445027642 -0.2503753742 3.6892919182
H -1.1742441462 -1.8034410733 3.0202672132
H -4.9285461986 -0.1498172952 -1.9468267619
H -5.1035066221 -1.9222357118 -2.1162389373
H -6.6511595964 -1.0806170506 -0.3683354766
H -5.3859022021 -2.0654343857 0.3917594497
H -5.3059482789 -0.2985286317 0.4750269975
*
