  9
        -11.86058018
 C         -1.6348368376       -0.4746010130        0.0000007430
 C         -0.6017619010        0.6561539188        0.0000047524
 C          0.7360774462        0.1351063071       -0.0000151480
 N          1.7985646269       -0.2941208449        0.0000073639
 H         -1.5176626250       -1.0992439195        0.8822236964
 H         -2.6356749419       -0.0525714281       -0.0000920154
 H         -1.5175356683       -1.0993679414       -0.8821260118
 H         -0.7211082920        1.2825252934        0.8874389312
 H         -0.7211310026        1.2825189099       -0.8874319109
