! pbe def2-sv(p) def2/J RI DEFGRID1 loosescf d4 GCP(DFT/SV(P)) printgap
%output
    printlevel normal
end
* xyz 0 1
C 0.9706982111 -2.693345773 1.552863476
C 2.0765247671 -1.6807617025 1.7747863312
O 1.7723873447 -0.4333328574 1.1192284449
P 2.3942811116 -0.0024662543 -0.2893436417
S 2.9634429249 -1.4748507386 -1.4398716098
O 3.6382221985 0.9335020013 0.0221953777
C 3.5913823386 2.2978775187 0.4987474144
C 2.9051474295 2.4233980281 1.8427716654
S 0.9124791207 1.329726388 -0.9926410479
C 0.0423438371 0.1625020355 -2.0704093727
S -0.7317472281 -1.2057613985 -1.1762395371
P -2.039987383 -0.0274110605 0.0013468811
S -2.7806627767 1.5801012171 -0.8531309158
O -1.1740312514 0.2527493364 1.2984848044
C -1.3076614194 1.4561564449 2.0749789725
C -2.585217241 1.4393213345 2.8877089336
O -3.0596880862 -1.0955672114 0.5851950996
C -3.8086753521 -2.0548418306 -0.1825251675
C -4.5790521314 -1.4263223425 -1.3252898949
H 0.9419237235 -2.9959902499 0.5081693117
H 1.1559032528 -3.5661377603 2.1706168608
H 0.0099315026 -2.258330285 1.8184019006
H 3.0320051409 -2.0612238479 1.4012278915
H 2.1703300361 -1.4216913887 2.8309960161
H 4.6441369739 2.5796807629 0.5540456318
H 3.0841483326 2.9062815767 -0.2546588487
H 1.8603511898 2.1313709659 1.755396966
H 3.3921645127 1.7867931445 2.5770996536
H 2.9569562849 3.4564342953 2.1721168124
H 0.7473350964 -0.2871571773 -2.7688000266
H -0.7205587748 0.7447201409 -2.5870091553
H -0.4213250721 1.4628527482 2.7112517644
H -1.2878172164 2.3173067099 1.3983733269
H -2.6382184086 2.3340291904 3.499821447
H -3.4426423933 1.4154588068 2.2157468881
H -2.6154102001 0.5590307815 3.5240115552
H -3.11174686 -2.8106666668 -0.5556811999
H -4.4803650215 -2.5021700734 0.5525008371
H -5.2147395235 -0.6233114213 -0.9595833526
H -3.8906508816 -1.01311455 -2.0612975599
H -5.1942216376 -2.1819753978 -1.8031810419
*
