! wb97x-v def2-tzvp def2/J RIJCOSX DEFGRID2 scfconv7 GCP(DFT/TZ) printgap
%output
    printlevel normal
end
* xyz 0 1
C -1.8264350046773823 -0.04546014340363584 -0.35663607745457926
C -1.055240370934376 1.2964663753690397 -0.25591003332394907
C 0.28392994935927496 1.17511727204682 0.5005032762907352
C 1.0748285833040454 -0.009615982067638258 0.03959007771236403
O 2.2676023286766265 0.05572910962297018 -0.25189794790256925
C 0.3136483096092154 -1.309650082272422 -0.04451900677974589
C -1.1372916505050201 -1.1755365132913935 0.4121440834405826
H -1.9012919206470011 -0.344765851370323 -1.4081932816786926
H -2.850587508114511 0.07926453278973453 0.007815967189918397
H -0.8493965565348641 1.6846489931793371 -1.257926027143873
H -1.6597201276287077 2.05142883062885 0.25429479409392547
H 0.8824524762496568 2.085003442936609 0.4141948980680467
H 0.0772564787871522 1.0057321079153771 1.5672433386429379
H 0.35964289463096955 -1.636459994340684 -1.0929759012150795
H 0.8673124508300799 -2.0591919321499 0.5339727511902563
H -1.6661492031560128 -2.119759914184482 0.2490873515187344
H -1.1695089073762241 -0.977101710314983 1.4899121157145492
*
