! wb97x-v def2-tzvp def2/J RIJCOSX DEFGRID2 scfconv7 GCP(DFT/TZ) printgap
%output
    printlevel normal
end
%cpcm
    smd true
    smdsolvent "water"
end
* xyz 0 1
C -0.3363076944580733 -1.2164303243954167 -0.0002289113217743116
C 1.0467269661333645 -1.2155934771363586 -3.0111301105187503e-05
C 1.7385019046105132 -0.00015374632242521946 1.9675725354642013e-05
C 1.0473437025071537 1.2157330801498039 -7.522527553857031e-05
C -0.33457402809451686 1.2164474992349783 -0.0002742877463602951
C -1.0374807708347114 -0.00017066392049899044 -0.00033847103943437224
C -2.4531630907122497 -0.000300023340748724 5.791501859217027e-05
N -3.615581121237409 -0.001131258312794971 0.000836627625612663
O 3.099544019695273 0.05630985852505995 0.00017798030020276914
H -0.8818503163518385 -2.153500093486794 -0.0002302134477897435
H 1.5992147360589697 -2.1504294031252456 0.00011642003024999172
H 1.6036632173455652 2.1467026316267015 3.3676379895833854e-05
H -0.8806998870793834 2.1531596034069134 -0.0003139767825701476
H 3.4605462715913795 -0.842468832318352 0.00021305554467711938
*
