! wb97x-v def2-tzvp def2/J RIJCOSX DEFGRID2 scfconv7 GCP(DFT/TZ) printgap
%output
    printlevel normal
end
* xyz 0 1
C -0.6377465671351301 -0.9119316221699437 0.3973166205522492
C 0.3918717254961695 -0.1261567084620804 -0.37848569235930873
Cl 2.0150939055600996 -0.8343056122669794 0.014096315447285417
Cl 0.37336908218845793 1.6273118711417618 0.0501256367038007
Cl -2.3120871402394045 -0.36944056378895096 -0.05943504164357624
H -0.5634703740388398 -1.9671181587694555 0.12761981181267845
H -0.5248176521087381 -0.7813604739394663 1.4743361551087395
H 0.2626117305904732 -0.19698698326908287 -1.4586478291847027
*
