! wb97x-v def2-tzvp def2/J RIJCOSX DEFGRID2 scfconv7 GCP(DFT/TZ) printgap
%output
    printlevel normal
end
%cpcm
    smd true
    smdsolvent "water"
end
* xyz 0 1
C -1.8480230022331479 -0.7741868777332352 0.3332923938152939
S -0.8174699381307327 0.6371466650175175 -0.23128129190496477
S 0.9922952546725359 0.3080949234982638 0.724862286299491
C 1.8372102584362977 -0.8856267217486159 -0.38571847524981817
H -1.4056889067012375 -1.7221862516074886 0.01937442248616309
H -2.822732400686657 -0.65461938836994 -0.15169778430133019
H -1.975379681383521 -0.7476667218752279 1.4172907386448628
H 2.810149929092727 -1.0933517992343482 0.07241712158795784
H 1.986815415192749 -0.4497234187670311 -1.3754962768913452
H 1.2680836448479302 -1.8152314600167818 -0.45491275633920664
*
