! pbe def2-sv(p) def2/J RI DEFGRID1 loosescf d4 GCP(DFT/SV(P)) printgap
%output
    printlevel normal
end
* xyz 0 1
C 3.7912903131 1.3731537923 -1.5593508484
C 2.3567081097 1.6197090753 -1.144222602
O 1.6690655093 0.3930208029 -0.8376930036
P 2.0336680166 -0.5086100337 0.4120462407
S 2.677214326 0.4388999229 2.0067373971
O 3.0586999586 -1.5466374426 -0.2160505179
C 3.897262851 -2.3879380843 0.5965330713
C 3.0996721645 -3.4342745023 1.3480358622
S 0.240820077 -1.5923662338 0.5901188856
C -0.6076150814 -0.4213132174 1.6881045293
S -0.8921241593 1.2077130249 0.9400015021
P -2.0118860687 0.6462831974 -0.7740234614
S -1.1577900051 -0.0185346958 -2.3995225392
O -2.7867564416 1.9843425454 -1.116939783
C -3.6221525722 2.6970771224 -0.1696801992
C -2.9432120407 3.9787006046 0.2699992639
O -3.089324678 -0.3269071811 -0.1066842654
C -3.5201667887 -1.5854576079 -0.6665067318
C -3.2081493366 -2.7188000604 0.290177731
H 4.355381991 0.9712042012 -0.7181354345
H 3.8250281472 0.6608049651 -2.3797877433
H 4.2412367148 2.3101021927 -1.8722193207
H 1.7656456142 2.0511971407 -1.9543146314
H 2.3098775761 2.2696977964 -0.2635681175
H 4.5845169842 -2.8404170508 -0.1195044014
H 4.4503705548 -1.7513661139 1.2947913783
H 3.7820219839 -4.1182434417 1.8424364798
H 2.4719017248 -2.9565912065 2.0992127173
H 2.4646324368 -3.9894293377 0.661934895
H 0.0100612467 -0.2333233015 2.566685571
H -1.5583815738 -0.8721664178 1.9599679338
H -4.5440550339 2.9057023699 -0.7150576636
H -3.8354594551 2.0458229008 0.6807078713
H -2.7015959302 4.5871213006 -0.597038237
H -3.61340896 4.5307491639 0.9212018397
H -2.024433935 3.7567926761 0.8090011274
H -4.5958465323 -1.4849819729 -0.8240043298
H -3.0223864144 -1.731448317 -1.6308439663
H -3.6576763333 -2.5263840326 1.2603432198
H -3.6167830582 -3.6390708813 -0.1141921322
H -2.1319947818 -2.8335541948 0.4072726895
*
