! pbe def2-sv(p) def2/J RI DEFGRID1 loosescf d4 GCP(DFT/SV(P)) printgap
%output
    printlevel normal
end
* xyz 0 1
C 2.5613101441 -0.9575033086 -2.899931141
C 3.1801302914 0.1163049332 -2.0262466162
O 2.2156199082 0.644424932 -1.0819335947
P 2.0409094711 0.1922615248 0.4160508799
S 0.8012539264 1.4170819951 1.3072437874
O 3.5430324215 0.1950565535 0.9353487214
C 4.0207918164 -0.5041019841 2.1009760548
C 3.223123688 -0.1831593553 3.3469201559
S 1.5732567431 -1.8840476285 0.45515459
C -0.0328909001 -1.8683699104 -0.377773434
S -1.4045615989 -1.2437991621 0.6442199028
P -2.0301544829 0.4055339648 -0.5531624991
S -0.9421757405 0.8156570898 -2.1233161455
O -2.2172835489 1.6194040765 0.4261791519
C -2.963552135 1.5282843028 1.6669526274
C -2.5425149636 2.6886033989 2.5425769365
O -3.5591967683 0.077279211 -0.8900313412
C -3.9771421528 -0.686738972 -2.0333158053
C -3.5229055106 -2.1309773321 -1.9679052319
H 3.2432246133 -1.1843863335 -3.71322166
H 2.3774482158 -1.8653380295 -2.3306612398
H 1.622554624 -0.5953606521 -3.3146324229
H 3.4639823179 0.9876355374 -2.6185919626
H 4.0468351342 -0.2564488704 -1.4775274708
H 3.9922355338 -1.5764396619 1.8888563775
H 5.055758563 -0.1694994734 2.1920526201
H 2.1963074912 -0.5293347584 3.2351824201
H 3.6734146479 -0.6787236067 4.2008549628
H 3.2043374332 0.8905001857 3.519455336
H -0.2415238168 -2.9095980526 -0.6102187201
H 0.0279699877 -1.2537812853 -1.2808374939
H -4.0261800247 1.5655898786 1.4180566058
H -2.7324308863 0.5705963855 2.1428404131
H -2.7691504866 3.6299906578 2.0506294502
H -3.0713018153 2.6338274585 3.4883055117
H -1.4705556007 2.6395768799 2.7211781567
H -5.06490616 -0.6054480944 -2.0116659237
H -3.5857112584 -0.2004266527 -2.9323150662
H -3.7983100052 -2.5718093302 -1.0131902394
H -3.9933178026 -2.6878766184 -2.7718467629
H -2.4422884736 -2.1851283667 -2.0882834569
*
