! pbe def2-sv(p) def2/J RI DEFGRID1 loosescf d4 GCP(DFT/SV(P)) printgap
%output
    printlevel normal
end
* xyz 0 1
C 5.3061933518 -1.6574764725 -1.1798216686
C 3.9998140065 -1.1328398903 -1.7418476695
O 3.1153126449 -0.8643485835 -0.6394422658
P 1.9309765616 0.208861678 -0.7240105793
S 2.4558278011 1.8629118525 -1.6308328781
O 1.5189991411 0.2718266998 0.7986497137
C 2.2519713624 1.0927524984 1.7394086335
C 1.3704497518 1.2987968049 2.9524742444
S 0.3287057555 -0.8750530426 -1.5575885399
C 0.0199257388 -2.0218378037 -0.1857987878
S -1.0099330409 -1.3377698146 1.1611626549
P -1.9961969702 0.3059062079 0.2304407128
S -0.9979951609 1.9757612897 -0.0547852107
O -3.2538326336 0.4976875217 1.185076848
C -3.2114538831 1.2742845827 2.3948913425
C -2.6745102612 0.4662419525 3.5588140236
O -2.6626852289 -0.2143632685 -1.1000793772
C -3.8376372515 -1.0627171826 -1.1887399944
C -3.4784284771 -2.53323852 -1.1201179597
H 5.7732234651 -0.9029126336 -0.5531961854
H 5.1241528436 -2.5481432524 -0.5855662913
H 5.9723144408 -1.9014958299 -2.0006987881
H 3.5184437415 -1.8698576221 -2.3901993757
H 4.1474470662 -0.2041254243 -2.3036916056
H 3.1750000517 0.5658457859 1.991903557
H 2.496975417 2.0426122542 1.252266097
H 0.4623147619 1.8206132891 2.6595064169
H 1.1071015937 0.3385003432 3.3874027549
H 1.9049712276 1.8958976648 3.6836338372
H 0.9662431641 -2.3212218292 0.2604281161
H -0.4988390577 -2.8734727509 -0.619605005
H -2.6025310132 2.1665578227 2.2133250522
H -4.2496179964 1.5686338884 2.5577963752
H -3.2564201324 -0.442437792 3.6841246947
H -1.6361873844 0.1938393194 3.38196284
H -2.7352017525 1.0623612766 4.4635470303
H -4.5321279877 -0.7827109083 -0.3956978446
H -4.2589850174 -0.802567421 -2.1611090133
H -3.1094514869 -2.7934405946 -0.1311347484
H -4.3691189591 -3.1184899017 -1.3272433065
H -2.7214850586 -2.7644249912 -1.8656072159
*
