! pbe def2-sv(p) def2/J RI DEFGRID1 loosescf d4 GCP(DFT/SV(P)) printgap
%output
    printlevel normal
end
* xyz 0 1
C 2.482273126 0.1911852313 -2.9779676221
C 2.7575200245 1.0995964521 -1.7969419284
O 3.1809413982 0.3352337975 -0.6530604544
P 2.2439147094 -0.1395318718 0.5315247727
S 1.2049874739 1.2656065537 1.4353406626
O 3.2749191813 -0.8743431593 1.4818784394
C 4.0023330199 -0.1910086291 2.5230452584
C 5.0386759756 0.7571270752 1.9582412255
S 1.2086152233 -1.8261155498 -0.1872678667
C -0.0921413682 -1.8924166833 1.0940587579
S -1.7626547261 -2.025861201 0.4060299172
P -2.0876000062 -0.0473181451 -0.2538318979
S -0.8339060332 0.7702589813 -1.5264459756
O -2.278402077 0.6772901743 1.1365070358
C -2.2521269122 2.1119272027 1.2819445039
C -3.3874323357 2.7764419203 0.5346228687
O -3.5728380898 -0.1428544095 -0.8044565836
C -3.8754911373 -0.6085061961 -2.1344543636
C -5.2336610064 -0.0605291451 -2.5244746224
H 1.6147790487 -0.4345983062 -2.779874666
H 2.2778025614 0.8004119801 -3.8522086733
H 3.3426712902 -0.4440822537 -3.1676573132
H 1.8699076299 1.6848627947 -1.5377675665
H 3.5925108655 1.7724893429 -2.0012624872
H 3.2847758744 0.3494277882 3.1491452179
H 4.4598441295 -1.000280054 3.0933684421
H 5.6877677818 0.23190706 1.262761805
H 4.5452840135 1.5725791487 1.4310077098
H 5.6313712808 1.1681134084 2.7695184937
H -0.0268344273 -0.9908214115 1.7075353024
H 0.0543309839 -2.7906220007 1.6875731035
H -2.3262911528 2.2614583709 2.35987372
H -1.2814626796 2.4785296757 0.932740642
H -4.337418267 2.3403937765 0.8324288825
H -3.3882628239 3.8392785125 0.7551488989
H -3.2541464073 2.6370971402 -0.5376567787
H -3.0908117979 -0.2596064455 -2.8147220363
H -3.8756251627 -1.7013345658 -2.1177768331
H -5.4966746869 -0.4314629947 -3.5095684126
H -5.9816106647 -0.382688811 -1.8059785094
H -5.2096507555 1.025427836 -2.5452822632
*
