! pbe def2-sv(p) def2/J RI DEFGRID1 loosescf d4 GCP(DFT/SV(P)) printgap
%output
    printlevel normal
end
* xyz 0 1
C 5.179940809 -1.1995201405 -1.9398584969
C 4.9457908127 -0.335490385 -0.7166208373
O 3.6903633486 -0.6862575089 -0.0891488478
P 2.3781506204 0.169691096 -0.3147015131
S 1.9739571171 0.6552989552 -2.1754699686
O 2.6783330778 1.4073452454 0.640711173
C 1.8759699764 2.5985351448 0.7090098872
C 0.9766341724 2.5665749397 1.9285747109
S 1.0425525341 -1.0882635874 0.7089591738
C 0.072708774 -1.697837316 -0.7208014542
S -1.6453078503 -1.9863414549 -0.2799414976
P -2.1514595698 0.0192207544 0.2593334212
S -1.3092226783 1.4498169998 -0.7779080208
O -1.7747077631 0.1908831732 1.77972687
C -2.2517201067 -0.6887201074 2.8283360179
C -3.3982005515 -0.0420245947 3.5781107089
O -3.7375199753 -0.033915386 0.3150213103
C -4.5901030045 -0.5567386764 -0.7214680758
C -4.3122509767 0.0588307495 -2.0765253585
H 5.1424832645 -2.2498445365 -1.6655464345
H 4.4146557968 -1.0026797378 -2.6877999266
H 6.1539230441 -0.9700282138 -2.3599747208
H 4.9344662612 0.7255998364 -0.9796990305
H 5.6995860838 -0.5143426074 0.051773924
H 2.5952334287 3.4176832256 0.7702714384
H 1.2908378141 2.6962811947 -0.2119054335
H 0.4702454496 3.5221529355 2.0193267994
H 0.2263418938 1.7843894841 1.8286286364
H 1.5670821262 2.3792543117 2.8210336479
H 0.4712575708 -2.6558264234 -1.045265882
H 0.133273118 -0.9505310927 -1.5177508977
H -2.5527885093 -1.6415843965 2.384544638
H -1.3849342532 -0.8436716153 3.4734994992
H -3.0836075795 0.9137132691 3.9877379661
H -4.2381934752 0.1243235533 2.9089829959
H -3.7066836835 -0.6958962158 4.387685307
H -4.457298358 -1.6414266623 -0.7550758801
H -5.5957968268 -0.3142273516 -0.3737741902
H -4.3790587908 1.1431290633 -2.0231190381
H -3.3101971381 -0.2056378004 -2.4123295596
H -5.0343785028 -0.3111435421 -2.7971682745
*
