! pbe def2-sv(p) def2/J RI DEFGRID1 loosescf d4 GCP(DFT/SV(P)) printgap
%output
    printlevel normal
end
* xyz 0 1
C 2.5097313893 -3.159836344 -0.432109843
C 3.3666597324 -2.2070711181 -1.2363332349
O 3.5441695285 -0.9319696668 -0.5742735299
P 2.4137768595 0.0783113716 -0.1521914672
S 3.1069875077 1.8853964739 0.1184553871
O 1.7807473086 -0.5938621149 1.1458374897
C 1.2685138856 0.1247569936 2.2791903811
C 2.0201793766 -0.3100966678 3.5218194558
S 0.9549794692 -0.1440540902 -1.7035595526
C 0.2518383323 1.513843463 -1.5959783537
S -0.645707728 1.8108226708 -0.0501123037
P -2.1082397024 0.3000382361 -0.3414045533
S -2.7161328869 -0.0374369611 -2.1640853099
O -3.2979341106 0.7572033329 0.5970984446
C -3.113272748 1.0601555615 2.0030727228
C -4.4650684419 1.4420415704 2.5683011879
O -1.3881082278 -0.9206959269 0.4074328976
C -1.6112990412 -2.2891002226 0.0174834958
C -2.9995253771 -2.7538764412 0.4073583934
H 2.9299515477 -3.2984182648 0.560287609
H 1.5028048797 -2.7584854183 -0.3383942064
H 2.4640345853 -4.116417367 -0.9431400198
H 2.9280965121 -2.0237312789 -2.2208618025
H 4.3881671802 -2.5737253592 -1.3478405579
H 1.3853602457 1.2003878081 2.1092949544
H 0.2052225032 -0.1176917527 2.3457726179
H 1.9299665001 -1.3835510406 3.6599303818
H 3.0723620551 -0.0530116395 3.4254673941
H 1.6065543169 0.2015713855 4.3846996727
H -0.4305878641 1.6149401165 -2.4392220515
H 1.0501071784 2.2553104174 -1.6318965913
H -2.7055465664 0.1750251979 2.4972967254
H -2.3963672791 1.8820584249 2.0851336817
H -5.1649054182 0.6192151649 2.4543842308
H -4.3562072761 1.6806027026 3.6213078996
H -4.8565212222 2.3075516158 2.0417806821
H -1.4635340305 -2.3717979675 -1.0638197364
H -0.8344913378 -2.8463804677 0.543752681
H -3.7453716184 -2.1474617213 -0.1066039106
H -3.1273086818 -3.791449557 0.1156292112
H -3.1464305416 -2.6610562581 1.4803472464
*
