! pbe def2-sv(p) def2/J RI DEFGRID1 loosescf d4 GCP(DFT/SV(P)) printgap
%output
    printlevel normal
end
* xyz 0 1
C 1.8514093497 -3.0135381508 0.0103795978
C 1.5864861024 -1.9519073025 1.0584467735
O 2.5654368788 -0.9017136846 1.0384373082
P 2.7230955975 0.2233193267 -0.0793284012
S 3.3118659372 -0.3047534754 -1.8710391843
O 3.8058100972 1.1505972515 0.5821048365
C 3.9232187812 1.4599576822 1.9935538934
C 2.7187642495 2.2057549319 2.5265377256
S 0.8779934707 1.3176932393 -0.0444947954
C 0.2421289608 0.8603403537 -1.6697667233
S -0.5746399435 -0.7612574429 -1.6715758923
P -2.2071754855 -0.1934106307 -0.4560736732
S -2.9045148392 1.6208128216 -0.7411634944
O -1.7786237703 -0.5021467944 1.0495309707
C -1.714457476 0.4824151701 2.0983181222
C -2.997643177 0.4768618435 2.9048313325
O -3.1028317491 -1.4429608041 -0.8366110641
C -4.2474036357 -1.8659695715 -0.0646140973
C -5.4643304091 -1.0049757942 -0.3400361782
H 1.7263150081 -2.6027171991 -0.9897501805
H 2.8659492842 -3.3916548261 0.1059460566
H 1.1477111973 -3.8291525036 0.1422883823
H 1.6725222595 -2.3633718785 2.0663062574
H 0.5908981647 -1.5181813544 0.9240914291
H 4.07989709 0.5254219992 2.5348376214
H 4.8258038017 2.0712690127 2.0370311753
H 2.5366461908 3.1027525632 1.9404532058
H 1.8316573194 1.576573665 2.4805606554
H 2.9020686368 2.4840675854 3.5596400004
H 1.0696019066 0.7979156401 -2.3778225716
H -0.4761226957 1.6287112127 -1.9553835262
H -0.856215558 0.1926720022 2.7063427328
H -1.5371231399 1.467733579 1.657619376
H -3.8320431268 0.7800712606 2.2754067935
H -3.1918069439 -0.5151733883 3.303471029
H -2.9042428971 1.180447243 3.7255747952
H -4.4094670258 -2.8962216056 -0.3863807625
H -3.9826143391 -1.8481286335 0.9955410578
H -5.2794992148 0.0244261604 -0.0384737274
H -5.6972066517 -1.013311958 -1.401653509
H -6.3121154079 -1.3918215108 0.2165952322
*
