! pbe def2-sv(p) def2/J RI DEFGRID1 loosescf d4 GCP(DFT/SV(P)) printgap
%output
    printlevel normal
end
* xyz 0 1
C 3.0448442273 -2.2567684634 -2.2225901022
C 4.2327792021 -1.5506013224 -1.605092634
O 3.8901592305 -0.2494178655 -1.0698364226
P 2.8364779171 0.0304102283 0.0709909855
S 3.2008039673 1.724745837 0.9800229868
O 2.9655083834 -1.2848264157 0.9606789289
C 2.5861535088 -1.3414009522 2.3456693793
C 1.1024252076 -1.1180664486 2.5502414941
S 0.934826204 -0.0930276138 -0.9117456098
C 0.2276977754 1.5130185064 -0.4819939934
S -0.9620748213 1.4500824045 0.8901162123
P -2.3758370121 0.2283153617 -0.0909362742
S -2.654250675 0.5443455243 -2.0103859463
O -3.6832542334 0.3295687445 0.8063260371
C -4.7034069209 1.3166430819 0.5801397969
C -4.2248117382 2.7173327996 0.9043868933
O -1.8208782293 -1.1984357501 0.314268478
C -2.1239353274 -2.3837731125 -0.4488468453
C -3.5868306338 -2.7605495149 -0.3443285924
H 3.3759655775 -3.1935642799 -2.6599003579
H 2.2951931294 -2.4655018438 -1.4610157637
H 2.5926616918 -1.6400672298 -2.9952381085
H 4.9961181156 -1.3193635262 -2.3495041072
H 4.6655944267 -2.1467789423 -0.7994114792
H 2.889454427 -2.3430579597 2.6546774819
H 3.1630108044 -0.5903958664 2.8937371377
H 0.5202417052 -1.7742208301 1.9071618886
H 0.8472288671 -1.3148591178 3.586471157
H 0.8460134049 -0.0841334419 2.3220786959
H -0.2820884129 1.8818913323 -1.3708114454
H 1.0273566071 2.1868564635 -0.1687446301
H -5.0214311318 1.2525408646 -0.4656602537
H -5.517875707 1.0073593448 1.2365572802
H -3.804677833 2.7507338278 1.9065553856
H -3.457857808 3.0238781422 0.1940393991
H -5.0598643122 3.4074758193 0.8390743946
H -1.8399788394 -2.2055757267 -1.4909725092
H -1.4777295966 -3.1483617419 -0.0159616374
H -4.199647625 -1.995967582 -0.8204395863
H -3.7527066088 -3.7083786735 -0.8466591842
H -3.8790238403 -2.8450395469 0.699076741
*
