  18
  -22.2222419100000       0.111128225836109      !mtd8
 C         -1.8132027437       -1.4608730866       -0.0000992936
 C         -0.5230876999       -0.6994046598        0.0000332061
 C          0.6891607783       -1.3754484047        0.0000748985
 C          1.8922368619       -0.6914939826        0.0000298408
 C          1.8922352340        0.6915034362       -0.0000791814
 C          0.6891563980        1.3754483180       -0.0000281854
 C         -0.5230902785        0.6993975356        0.0000574724
 C         -1.8132119704        1.4608690567        0.0000475303
 H         -1.6270098390       -2.5314810930       -0.0001504331
 H         -2.4048910027       -1.2103786486        0.8792631576
 H         -2.4047359852       -1.2102431665       -0.8795262065
 H          0.6913420345       -2.4564863374        0.0001310114
 H          2.8245319032       -1.2368089263        0.0000596329
 H          2.8245270728        1.2368262842       -0.0001753492
 H          0.6913260497        2.4564869675       -0.0001374128
 H         -2.4053257238        1.2095184457        0.8788899918
 H         -1.6270124134        2.5314776983        0.0011160791
 H         -2.4043545562        1.2111100751       -0.8799029078
  18
  -22.2222419100000       0.111128225836109      !mtd1
 C         -1.8132035268       -1.4608776712        0.0000077857
 C         -0.5230829148       -0.6993983262        0.0000039647
 C          0.6891658945       -1.3754511493        0.0000004354
 C          1.8922368021       -0.6914996331       -0.0000148628
 C          1.8922293931        0.6915007467        0.0000129670
 C          0.6891574944        1.3754510687        0.0000082080
 C         -0.5230943181        0.6994009233       -0.0000125864
 C         -1.8132099527        1.4608686585        0.0000049985
 H         -1.6270329302       -2.5314913340        0.0001948543
 H         -2.4049254675       -1.2101555141        0.8792821321
 H         -2.4047310592       -1.2104689812       -0.8794893615
 H          0.6913259223       -2.4564868472       -0.0000367700
 H          2.8245448945       -1.2367947852       -0.0000917212
 H          2.8245216197        1.2368299583       -0.0000316180
 H          0.6913317127        2.4564912187       -0.0000324063
 H         -2.4051599598        1.2097796836       -0.8789949578
 H         -2.4044848465        1.2108399047        0.8797809029
 H         -1.6270196591        2.5315208401       -0.0007110702
  18
  -22.2222418500000       0.111121170341008      !md4
 C         -1.8132151022       -1.4608697904        0.0001404599
 C         -0.5230846312       -0.6994055155       -0.0001247712
 C          0.6891645323       -1.3754487904       -0.0001020595
 C          1.8922403452       -0.6914924239       -0.0000023226
 C          1.8922377259        0.6915036923        0.0000568694
 C          0.6891577865        1.3754509585        0.0000377359
 C         -0.5230869017        0.6993989534       -0.0000500551
 C         -1.8132130150        1.4608612822       -0.0000451714
 H         -2.4066037676       -1.2078371562       -0.8773503697
 H         -1.6270336417       -2.5314950075       -0.0031530749
 H         -2.4030580287       -1.2127471758        0.8814670274
 H          0.6913493858       -2.4564884891       -0.0000680374
 H          2.8245325422       -1.2368128803        0.0000979031
 H          2.8245261435        1.2368350232        0.0001449469
 H          0.6913340028        2.4564889878        0.0000590780
 H         -2.4049459384        1.2100845873        0.8792399169
 H         -1.6270193023        2.5314751968        0.0001798306
 H         -2.4047334293        1.2105163847       -0.8795528727
  18
  -22.2222417600000       0.111110587938466      !md2
 C         -1.8131813122       -1.4609179723       -0.0000363110
 C         -0.5231022213       -0.6994015204        0.0000489531
 C          0.6891379327       -1.3754262369        0.0000434199
 C          1.8922346679       -0.6914840541       -0.0000457529
 C          1.8922474723        0.6914926046       -0.0000631467
 C          0.6891406487        1.3754331843        0.0000753151
 C         -0.5230922728        0.6994133578        0.0000695135
 C         -1.8131989279        1.4609008377       -0.0000581641
 H         -1.6268886108       -2.5315174446       -0.0002761790
 H         -2.4047682968       -1.2106047133        0.8794271751
 H         -2.4048826425       -1.2102698883       -0.8793588363
 H          0.6913757154       -2.4564626643        0.0000509588
 H          2.8244999374       -1.2368513117       -0.0000833812
 H          2.8245029762        1.2368990079        0.0000029698
 H          0.6913434436        2.4564807032        0.0002805030
 H         -1.6269588732        2.5315273812        0.0009923829
 H         -2.4041832614        1.2111296477       -0.8801396686
 H         -2.4055166204        1.2095477230        0.8787009650
  18
  -22.2222417600000       0.111110587938466      !md4
 C         -1.8132047009       -1.4608969464       -0.0000301009
 C         -0.5230847748       -0.6993983395        0.0000323377
 C          0.6891678838       -1.3754519543        0.0000257905
 C          1.8922327355       -0.6915019475       -0.0000043164
 C          1.8922238338        0.6915039569       -0.0000060253
 C          0.6891568585        1.3754573491       -0.0000046686
 C         -0.5230916392        0.6994017366       -0.0000083581
 C         -1.8132061256        1.4608872789        0.0000286512
 H         -2.4053877281       -1.2095523878        0.8787836553
 H         -2.4042933835       -1.2111595862       -0.8800554771
 H         -1.6269656007       -2.5315164665        0.0010227443
 H          0.6913050424       -2.4564905659       -0.0001467465
 H          2.8245537898       -1.2367766435       -0.0001557856
 H          2.8245289043        1.2368023755       -0.0000383198
 H          0.6913416147        2.4564933802        0.0000299334
 H         -2.4051671990        1.2098280418       -0.8789910931
 H         -2.4045002930        1.2108640590        0.8798070382
 H         -1.6269877115        2.5314942832       -0.0006529002
  18
  -22.2222417100000       0.111104709261369      !mtd11
 C         -1.8131976173       -1.4609047183       -0.0000281740
 C         -0.5230924581       -0.6994090513       -0.0000816244
 C          0.6891558990       -1.3754415802        0.0000413390
 C          1.8922395216       -0.6914890649        0.0000395166
 C          1.8922357685        0.6915002994       -0.0000445376
 C          0.6891449000        1.3754371265       -0.0000368493
 C         -0.5230975683        0.6993938526       -0.0000199905
 C         -1.8132029902        1.4609070638        0.0000655051
 H         -2.4030024838       -1.2130806212        0.8813660420
 H         -2.4066156337       -1.2076370057       -0.8773748301
 H         -1.6269724943       -2.5314733915       -0.0036235796
 H          0.6913615498       -2.4564807694        0.0000225441
 H          2.8245181609       -1.2368251604        0.0001215888
 H          2.8245133300        1.2368498779        0.0000381501
 H          0.6913446466        2.4564720994        0.0000968375
 H         -2.4055768253        1.2090782720        0.8785808337
 H         -1.6269510283        2.5314978522        0.0017462019
 H         -2.4040891115        1.2116712098       -0.8802013969
  18
  -22.2222417000000       0.111103533563608      !mtd6
 C         -1.8132045139       -1.4608692444        0.0003295661
 C         -0.5230832304       -0.6994016433       -0.0000252575
 C          0.6891655458       -1.3754487713       -0.0002115450
 C          1.8922377281       -0.6914959214       -0.0002430008
 C          1.8922341222        0.6914979376        0.0002062570
 C          0.6891568947        1.3754498379        0.0002545757
 C         -0.5230888344        0.6994022542        0.0000589741
 C         -1.8132163895        1.4608629814       -0.0003525001
 H         -2.4032994122       -1.2122166957        0.8812857907
 H         -2.4063361605       -1.2083635785       -0.8774826101
 H         -1.6270379147       -2.5314760938       -0.0021849510
 H          0.6913433390       -2.4564864232       -0.0003704481
 H          2.8245367912       -1.2368092541       -0.0003090283
 H          2.8245354265        1.2368084547        0.0003139715
 H          0.6913334199        2.4564852909        0.0003796668
 H         -1.6270179699        2.5315219711        0.0025623263
 H         -2.4030787951        1.2124594855       -0.8816326564
 H         -2.4066377031        1.2081074631        0.8772345239
  18
  -22.2222416500000       0.111097655259746      !md4
 C         -1.8131881683       -1.4608867181        0.0000717075
 C         -0.5230886972       -0.6994069062       -0.0002101807
 C          0.6891545952       -1.3754488077       -0.0000542270
 C          1.8922292736       -0.6914943760        0.0001028784
 C          1.8922323987        0.6914994797        0.0000399324
 C          0.6891550821        1.3754536683       -0.0001064081
 C         -0.5230916634        0.6994016562       -0.0001722680
 C         -1.8132119982        1.4608857128        0.0001422620
 H         -2.4069933336       -1.2073411034       -0.8769332525
 H         -1.6269854976       -2.5314572157       -0.0040052283
 H         -2.4025864270       -1.2134067025        0.8818161789
 H          0.6913423583       -2.4564779163       -0.0000018667
 H          2.8245137053       -1.2368141822        0.0003770258
 H          2.8245211642        1.2368228541        0.0002164620
 H          0.6913450698        2.4564912438       -0.0001348171
 H         -1.6269931483        2.5314911046       -0.0010436266
 H         -2.4057003487        1.2094878525       -0.8784459457
 H         -2.4039973940        1.2111598663        0.8803752216
  18
  -22.2222416300000       0.111095304025118      !md4
 C         -1.8132003453       -1.4609359296       -0.0003273407
 C         -0.5230902395       -0.6994131000       -0.0001868956
 C          0.6891714000       -1.3754364635        0.0002437074
 C          1.8922485808       -0.6914797067        0.0003672581
 C          1.8922272771        0.6914891985       -0.0001369866
 C          0.6891265265        1.3754225336       -0.0004660719
 C         -0.5231181342        0.6993938119       -0.0002704597
 C         -1.8131884816        1.4609610722        0.0006294119
 H         -2.4050000026       -1.2099686229       -0.8795321456
 H         -1.6266862588       -2.5314697903       -0.0012012071
 H         -2.4047147101       -1.2112116217        0.8794571923
 H          0.6913769817       -2.4564643532        0.0005018842
 H          2.8245422697       -1.2367769249        0.0006822710
 H          2.8245016420        1.2368865210       -0.0004522163
 H          0.6913372376        2.4564628156       -0.0008336996
 H         -2.4073615188        1.2077455957       -0.8762475968
 H         -2.4023689221        1.2132158522        0.8825350462
 H         -1.6269908907        2.5315636496       -0.0031532571
