! r2scan-3c def2/J RI DEFGRID2 scfconv6 printgap
%output
    printlevel normal
end
* xyz 0 1
C 5.1966012205 -3.0137444421 -0.5981235286
C 4.807584815 -2.0142610531 -1.6753776157
O 3.3852966284 -2.045184234 -1.9143925165
C 2.6034208313 -1.30443819 -1.1609483814
O 2.9910213784 -0.5480723743 -0.293300312
C 1.1425739831 -1.5137496785 -1.4938557825
C 0.3122138948 -0.4007458532 -0.8703204694
H 0.4409188714 0.5561743792 -1.3818942523
C 0.6646345271 -0.233956295 0.5982777216
O 0.6439655806 -1.1512547773 1.3918523496
O 0.9015669146 1.022772712 0.8921427883
C 1.2806372572 1.3582972072 2.2410100361
C 0.7260493045 2.7284546672 2.5793590678
S -1.4532027413 -0.8633562747 -0.9377901634
P -2.2020314274 0.8297974674 0.10694921
S -1.5860304466 2.5764947491 -0.5097382683
O -3.777714644 0.5923920553 0.0118674051
C -4.4753771537 0.7696239273 -1.228539494
O -1.9546915537 0.5964394551 1.6531227195
C -2.3983356214 -0.5822473017 2.3586215105
H 4.7350381967 -2.7412970921 0.3487647639
H 4.868994798 -4.0113124099 -0.8768900027
H 6.2748282364 -3.0104539674 -0.4778814569
H 5.2490088415 -2.2728083944 -2.6376855269
H 5.0901934936 -0.9988349955 -1.3838262445
H 0.8465856855 -2.474091342 -1.061722586
H 1.0010251525 -1.564855044 -2.5722622593
H 0.8951485442 0.5832565885 2.9103003349
H 2.3741032525 1.3471426316 2.2676438806
H 1.0926618537 3.4629969561 1.8682272771
H -0.3602254098 2.7151228594 2.5293131293
H 1.0377714551 3.0040933339 3.5810530516
H -4.174219945 1.7082830304 -1.6956463545
H -5.5304843729 0.7944428278 -0.9684131889
H -4.2600404606 -0.0649282543 -1.894829988
H -3.3226487648 -0.9598072297 1.9277101228
H -2.555677283 -0.2630520625 3.3856941188
H -1.6137699089 -1.3384909488 2.3095654224
*
