! pbe def2-sv(p) def2/J RI DEFGRID1 loosescf d4 GCP(DFT/SV(P)) printgap
%output
    printlevel normal
end
* xyz 0 1
C 4.5018261608 -1.4886219548 0.8219162053
C 4.5588878885 -0.8981177942 -0.5711358585
O 3.2716600777 -0.8837999651 -1.2274454411
P 1.9728564873 -0.1372624353 -0.6893003255
S 0.7888170781 0.243074375 -2.1970088064
O 2.5351404389 1.0897665441 0.1497922831
C 2.3090727044 2.4659297626 -0.2000592363
C 3.3765896868 2.9511152664 -1.1599228353
S 1.2011986898 -1.4433343914 0.7991835464
C -0.2827203878 -2.0518218668 -0.0634634186
S -1.8217126973 -1.787325607 0.8497547464
P -2.0603439153 0.3101353111 0.556338097
S -0.6246432936 1.5093489112 1.1306025784
O -3.4970475259 0.5651360746 1.1849345014
C -3.9311267139 0.1166504889 2.4836563809
C -2.9723772619 0.5026824259 3.5898694474
O -2.3322113687 0.5291048044 -0.9776970517
C -3.3735903187 -0.1547180604 -1.7209567273
C -3.0356188612 -0.0397006344 -3.1928294492
H 5.5050612742 -1.519895323 1.2355382067
H 3.8726279496 -0.8723478944 1.4638324029
H 4.0921759996 -2.4949908706 0.794947753
H 5.1730860481 -1.5014476341 -1.241404213
H 4.9391017232 0.125577381 -0.5403594213
H 1.3123643353 2.5670388598 -0.639665337
H 2.3317673928 2.9992410905 0.7512884057
H 4.3622735163 2.8476685197 -0.7140970536
H 3.336408013 2.3685359635 -2.0800685032
H 3.1971010815 3.9952780304 -1.3950290146
H -0.1921171466 -3.1296007512 -0.1691901767
H -0.3404693995 -1.5575808607 -1.0377859565
H -4.9020026347 0.59924645 2.6089339209
H -4.0561204554 -0.968712208 2.4411232481
H -3.3857780974 0.2021826609 4.547142844
H -2.0132538779 0.0060738681 3.4460564986
H -2.8044244985 1.577251484 3.5893924531
H -3.4091445669 -1.1989784105 -1.3961863047
H -4.3226515025 0.3297769581 -1.4844686903
H -2.0462974927 -0.4492601834 -3.383903112
H -3.7725628961 -0.5839596522 -3.7740533739
H -3.0320930903 1.0035774413 -3.4945722888
*
