! pbe def2-sv(p) def2/J RI DEFGRID1 loosescf d4 GCP(DFT/SV(P)) printgap
%output
    printlevel normal
end
* xyz 0 1
C 3.0062452972 -3.8581099618 0.2075861645
C 2.6960343632 -2.4216245395 0.5776224795
O 2.1850741219 -1.7614083145 -0.5961769741
C 2.0390710266 -0.4580967312 -0.5688019776
O 2.288269462 0.2501739116 0.3865845204
C 1.5542482194 0.091391627 -1.8979094152
C 0.2891382063 0.9360718656 -1.7187076116
H 0.1450430512 1.5720609045 -2.5952660399
C 0.3711774618 1.8098882839 -0.4803447605
O -0.3508589809 1.6319927867 0.4862884368
O 1.2305956086 2.7720007806 -0.6224318691
C 1.5003507687 3.6650624356 0.4822106684
C 2.9447173664 3.495700575 0.9183838161
S -1.2177456288 -0.0835395425 -1.6223566292
P -1.6994527677 -0.3788788582 0.4351463705
S -0.4283329733 -1.0246746032 1.7812960444
O -2.712003526 0.7406396817 0.9219417159
C -3.9407853436 1.0245629103 0.2274481654
O -2.789599988 -1.5394625894 0.140604761
C -2.4040504591 -2.8771610564 -0.1742673369
H 3.3886946957 -4.3749069274 1.08111652
H 2.1037984858 -4.3548492077 -0.1349405153
H 3.7492458513 -3.8881661054 -0.5838045722
H 3.5857554844 -1.8805649849 0.9146842823
H 1.9360040178 -2.3531749918 1.363354477
H 1.3629786125 -0.7290932657 -2.5879106904
H 2.3460925798 0.7329628749 -2.2901444224
H 1.3128641615 4.6690512492 0.0964747521
H 0.8081679465 3.4350458424 1.2959685341
H 3.1165433439 2.4641659313 1.2175524319
H 3.614750412 3.7431375503 0.1007435451
H 3.1438282884 4.1500323352 1.7603524286
H -4.6482048768 0.2125964978 0.3857410091
H -3.7530259766 1.1505530672 -0.8391466194
H -4.3047155895 1.9496552901 0.6673503355
H -2.0553204438 -2.9310105701 -1.2054898033
H -3.2977731648 -3.4810840626 -0.0392996597
H -1.6155212358 -3.2065472078 0.5054688544
*
