! pbe def2-sv(p) def2/J RI DEFGRID1 loosescf d4 GCP(DFT/SV(P)) printgap
%output
    printlevel normal
end
* xyz 0 1
C 5.18486533 -0.8349529915 -2.3664075637
C 3.7420044478 -1.1333560331 -2.0113181012
O 3.5032522816 -0.655317297 -0.6725221115
P 2.055554817 -0.2631036755 -0.1525681422
S 1.0335044798 0.8202487065 -1.4331846399
O 2.356842884 0.3742626289 1.2609474956
C 2.6171999829 1.7796162417 1.4489995611
C 3.8702363731 2.2239589365 0.7266027638
S 1.310641493 -2.1428988297 0.4428925598
C -0.3213815861 -1.6903020959 1.0916145093
S -1.5353559644 -1.3242236402 -0.2148492392
P -2.2378109609 0.5358123855 0.5511859781
S -0.9421024822 1.6302602003 1.5261325089
O -3.434051125 0.1764214708 1.5109112788
C -4.5737034004 -0.6280478208 1.1068241123
C -4.522022056 -1.9818188376 1.7861981865
O -3.0051944317 1.2178086443 -0.6564991631
C -2.3903814285 1.8133916291 -1.8155231183
C -2.3660117986 0.8398106188 -2.9765065429
H 5.8473038356 -1.3056024406 -1.6458591293
H 5.3944867481 -1.2246256165 -3.3570634823
H 5.3606872384 0.2371688586 -2.3587640776
H 3.5415527043 -2.2076272523 -2.0257329765
H 3.0482133849 -0.628504052 -2.6924640301
H 1.7419765181 2.3423362551 1.1085222335
H 2.7089343882 1.8802706042 2.5312306406
H 4.7112428077 1.5996800487 1.0172135134
H 3.7236146278 2.1426589113 -0.3499834636
H 4.080188662 3.2591101121 0.9768067275
H -0.2258857548 -0.8114012341 1.7339971968
H -0.6598152245 -2.5584961501 1.6507272647
H -5.4452783792 -0.0548621181 1.4259411725
H -4.5763363099 -0.7263303527 0.0197057098
H -3.6820601618 -2.5634337209 1.4148322146
H -4.4184777638 -1.8543026973 2.8601546312
H -5.4424353029 -2.517343978 1.5764870277
H -3.0152014827 2.6806024334 -2.0370082105
H -1.3802792547 2.1474017162 -1.5623752232
H -3.366424795 0.4657941318 -3.1741869475
H -1.9902418575 1.3535018355 -3.8552317989
H -1.7074309613 0.0027113157 -2.7568061384
*
