! pbe def2-sv(p) def2/J RI DEFGRID1 loosescf d4 GCP(DFT/SV(P)) printgap
%output
    printlevel normal
end
* xyz 0 1
C 2.5912033622 -2.9656283061 -1.4157055793
C 3.4240953225 -1.7798503372 -1.8557450437
O 3.5863425649 -0.7940775115 -0.8103406542
P 2.4263159073 0.0162313295 -0.0900070971
S 3.1765828505 1.5972332567 0.7774060085
O 1.6796874037 -1.0101206152 0.8824957792
C 1.9658470735 -1.1185414486 2.2913087431
C 0.9495034991 -0.3529995072 3.1148437066
S 0.9759721417 0.2831548718 -1.6025347402
C 0.2527750207 1.8147019818 -0.9619635638
S -0.5917720188 1.6086341043 0.6271426263
P -2.0316403168 0.2100773356 -0.0331103605
S -2.7447007387 0.4449505375 -1.8482824985
O -3.1186616011 0.1969724702 1.1261438463
C -4.2662631217 1.0628196508 1.121600232
C -3.8882055383 2.5141065764 1.3376527084
O -1.2563951339 -1.1398183677 0.2579596394
C -1.5611470057 -2.3676351502 -0.4316742501
C -2.9317044087 -2.8955324927 -0.0631627441
H 2.5575341489 -3.6933832354 -2.2204111042
H 3.0258299937 -3.4260338412 -0.5320731911
H 1.5773150679 -2.6432225846 -1.1865620777
H 2.9732802003 -1.2884580752 -2.7220365045
H 4.4502489543 -2.0698508893 -2.0875562545
H 1.9189516507 -2.1890737685 2.4993348483
H 2.9776343836 -0.7488218139 2.4832284073
H -0.0582788216 -0.648667104 2.832803686
H 1.1085076918 -0.5668166105 4.166871451
H 1.058677379 0.7166354721 2.9483835045
H -0.4577480197 2.1493457664 -1.7172224887
H 1.0398811031 2.5501343852 -0.7980222626
H -4.7880641147 0.9401620382 0.1669682409
H -4.884975742 0.6824694755 1.9354984277
H -3.3277917663 2.8858302819 0.4808428283
H -4.7897374281 3.1074187842 1.4522329236
H -3.2722746465 2.6159691855 2.2277127312
H -1.4913852262 -2.1861115255 -1.5093544881
H -0.7678902088 -3.0476506745 -0.1170543068
H -3.0824796814 -3.8638219947 -0.5300494925
H -3.0200673347 -2.9939871134 1.0156075909
H -3.6990161845 -2.2083074433 -0.4181147824
*
