! r2scan-3c def2/J RI DEFGRID2 scfconv6 printgap
%output
    printlevel normal
end
%cpcm
    smd true
    smdsolvent "water"
end
* xyz 0 1
C 2.8095477825 -4.3619e-06 0.0067068821
N 1.396215844 -3.8833e-06 -0.3071201421
C 0.7323752849 1.1832981427 0.2105444665
C -0.7323701848 1.1833560241 -0.2104971272
N -1.3962132127 2.93179e-05 0.3071040541
C -0.7323879909 -1.1833226607 -0.2104720523
C 0.7323761686 -1.1833204121 0.2105160257
C -2.8095455383 -2.02137e-05 -0.0067859103
H 3.2686096 -0.8854263639 -0.4291519871
H 3.0018961092 0.0001933876 1.0913967296
H 3.2686662756 0.8852230631 -0.4294899485
H 0.7885170959 1.2226874617 1.3133868069
H 1.2286504686 2.0669332187 -0.1963327647
H -1.2286111448 2.0669960359 0.1964451677
H -0.7885193647 1.2228318791 -1.3133420392
H -1.2286555018 -2.0669356217 0.1965086098
H -0.7885744471 -1.2228317614 -1.3133270517
H 0.7885961925 -1.2227738453 1.3133606255
H 1.2286179448 -2.0669558923 -0.1964279421
H -3.2686552995 0.8852073164 0.4292617703
H -3.2686507151 -0.885340918 0.4292340926
H -3.0018704188 -7.649e-07 -1.0914448883
*
