! r2scan-3c def2/J RI DEFGRID2 scfconv6 printgap
%output
    printlevel normal
end
* xyz 0 1
C 4.1786179048 -3.254955425 -2.5240148605
C 2.8439933754 -3.2712667414 -1.8052683154
O 2.7511823125 -2.0761519818 -1.0036721718
C 1.8267188769 -2.0256075303 -0.0711498538
O 1.0501414002 -2.9234643985 0.1737326488
C 1.8176338297 -0.6852384452 0.6373031741
C 1.2373970398 0.3752919874 -0.3006294765
H 1.9291244923 0.5450639918 -1.1328185922
C 1.0403822305 1.7020893643 0.4168496703
O 1.8379921305 2.1236807324 1.2183952007
O -0.0551904664 2.3260558301 0.0295070826
C -0.3369971565 3.6197303571 0.6012778984
C 0.3461552476 4.7188153305 -0.1937860057
S -0.2911138588 -0.1880681463 -1.1215959255
P -1.7255171077 0.0986097802 0.422995812
S -1.1412524151 0.3471365049 2.2772543841
O -2.6877000402 1.2551602183 -0.0556749607
C -3.3102670398 1.2533148806 -1.3568264153
O -2.6722125869 -1.1766521431 0.2084150061
C -2.2850410032 -2.4753102978 0.6693703747
H 4.9917770242 -3.2432431173 -1.8042940919
H 4.2623634604 -4.1418899304 -3.1429691617
H 4.2525177608 -2.3717790229 -3.150962647
H 2.7423902928 -4.138769736 -1.1461381647
H 2.0058825741 -3.2683282399 -2.508634693
H 2.8315390799 -0.3923569657 0.9095043454
H 1.209448551 -0.7678450653 1.5401059534
H -1.4236255183 3.7018920129 0.5607941337
H -0.0012338077 3.6133442382 1.6422043188
H 1.4263219211 4.615578799 -0.1218323799
H 0.0501250909 4.6661382616 -1.2377802453
H 0.0566263436 5.6816964927 0.2134224933
H -3.8398107407 2.2003298254 -1.4187901403
H -4.0015451667 0.4166669686 -1.4351555328
H -2.5475068513 1.1834339038 -2.1322730977
H -1.3435937517 -2.7867431891 0.213992223
H -3.091396073 -3.141415986 0.3751556278
H -2.1712939035 -2.4653037962 1.754044721
*
