! pbe def2-sv(p) def2/J RI DEFGRID1 loosescf d4 GCP(DFT/SV(P)) printgap
%output
    printlevel normal
end
* xyz 0 1
C 4.0184644634 2.0412379126 -1.043883952
C 2.7509631906 1.5129201638 -1.6802098526
O 2.4481472756 0.1725620988 -1.2440678072
P 2.1027480699 -0.1883643371 0.2499104049
S 1.2214671616 1.1473350717 1.38871034
O 3.5442797888 -0.6087198729 0.7815509907
C 3.7497163965 -1.0280620872 2.1437334495
C 5.2426294974 -1.060914882 2.4011954841
S 1.1162413744 -2.041981168 0.0268078615
C -0.3881406125 -1.7629594899 1.0287477892
S -1.927348294 -1.8941795601 0.0872601495
P -2.0805572281 0.0675663973 -0.6606968592
S -0.6596566255 0.8291128057 -1.7722204055
O -2.3322789098 0.8466730564 0.7126085033
C -2.1151674847 2.2603492776 0.8442530813
C -3.1850307298 3.0542189574 0.1246896013
O -3.4215652346 0.0344479684 -1.5018179237
C -4.5926979444 -0.7652807228 -1.2120599359
C -5.2659349098 -0.3644666602 0.0834068761
H 4.251246579 3.0150789922 -1.4629543978
H 3.8777393919 2.1419842268 0.0319825933
H 4.8424412664 1.3570410423 -1.2289996175
H 2.8430066174 1.4142210771 -2.7625521455
H 1.8921051035 2.1517141041 -1.4504662852
H 3.2422239658 -0.3188033639 2.8065733595
H 3.3019518764 -2.0184680099 2.2688520249
H 5.6665601462 -0.0687927501 2.2754707789
H 5.4213687158 -1.4016644808 3.4156273604
H 5.7225539408 -1.7396216584 1.7022047813
H -0.3238088518 -0.7780146178 1.4993479957
H -0.4344922463 -2.5560671426 1.7699664121
H -2.1256703037 2.4330140207 1.9213288694
H -1.1223722103 2.5022720264 0.4514582451
H -2.9930218594 4.1147277444 0.2531480711
H -3.1629831422 2.8147786578 -0.9386298234
H -4.1666464304 2.8143984604 0.5240348898
H -5.2369425602 -0.5842786235 -2.0741773442
H -4.2936790538 -1.8160391673 -1.1881114792
H -6.1559613501 -0.9708394464 0.2194048053
H -4.5944761699 -0.5271327882 0.9234382579
H -5.5503204692 0.6839982502 0.0526002028
*
