! pbe def2-sv(p) def2/J RI DEFGRID1 loosescf d4 GCP(DFT/SV(P)) printgap
%output
    printlevel normal
end
* xyz 0 1
C 4.2839250331 -0.9499634621 1.4155666878
C 4.7485084659 -0.3499207027 0.1057596586
O 3.7318528358 -0.4024180869 -0.9262248287
P 2.3180518406 0.2930324595 -0.8684667155
S 1.6102539512 0.5495397263 -2.6768478608
O 2.6516792097 1.6090739575 -0.0411215564
C 1.7242778323 2.6879324513 0.1697674282
C 1.1053586363 2.6038530732 1.5512070435
S 1.1098912227 -0.9109927471 0.4066487232
C -0.0144992678 -1.6475459178 -0.8238157456
S -1.6433103974 -1.9745977909 -0.1281538096
P -2.1760786519 0.0391906514 0.3362419413
S -1.5617356107 1.4351598321 -0.8893552913
O -1.6768137038 0.284022925 1.8098453339
C -2.0315913403 -0.5909550642 2.9158707343
C -0.7725686557 -1.1726695661 3.5250457622
O -3.7522176458 -0.0487143606 0.5447421258
C -4.6984372648 0.1132651802 -0.5253995553
C -4.6010961647 -0.9911838392 -1.5580784624
H 3.9440972714 -1.9716743614 1.2682511698
H 5.1112073491 -0.9452180012 2.1184526722
H 3.4638256697 -0.3653477304 1.8288944183
H 5.5702985175 -0.9200748325 -0.3302292203
H 5.0461620483 0.6921254061 0.2354449142
H 2.323530471 3.594065681 0.060332723
H 0.9575674695 2.6685590839 -0.6114424728
H 0.4658006215 1.7274401319 1.6328065948
H 1.8841491702 2.5506183853 2.3066674631
H 0.4991853984 3.4886655877 1.717527526
H 0.3799402987 -2.6089949454 -1.1436116285
H -0.0956753975 -0.9548494778 -1.6667425913
H -2.5670023808 0.0410850385 3.6256502108
H -2.6968868146 -1.3763813088 2.5500652661
H -0.1126589503 -0.3751485747 3.8532629302
H -1.0440027542 -1.7884820274 4.3762465923
H -0.2435264594 -1.7812016988 2.7950845899
H -5.664427216 0.1060527063 -0.0183700419
H -4.5295864598 1.0897475317 -0.9899535313
H -3.6606073862 -0.9127187037 -2.1019912368
H -4.6495305519 -1.9654806828 -1.0782087892
H -5.4203271285 -0.894341573 -2.2633534236
*
