! pbe def2-sv(p) def2/J RI DEFGRID1 loosescf d4 GCP(DFT/SV(P)) printgap
%output
    printlevel normal
end
* xyz 0 1
C 1.4824600047 -1.3981497132 -2.9570055457
C 2.4094984666 -0.7578890004 -1.9450762505
O 1.6237185509 0.1094314776 -1.0826946075
P 1.892445791 0.2321928135 0.4649435711
S 0.8382252918 1.6265005241 1.338241411
O 3.4670956993 0.4421516133 0.5043495113
C 4.1641398867 0.9457256462 1.6596420684
C 4.092062791 -0.0028017752 2.8383186296
S 1.611060246 -1.7283975919 1.2308006348
C -0.1893876661 -1.6371395637 1.3769447606
S -1.0566588211 -1.7606284035 -0.2238710557
P -1.9184852122 0.1421843906 -0.5479521034
S -1.0983487919 1.5165940823 -1.6918913244
O -2.2422300016 0.5305193748 0.9513442385
C -2.7645729133 1.8354110823 1.2874257618
C -2.5938867296 2.0343058528 2.7782576301
O -3.3731329092 -0.244446507 -1.0825968652
C -3.6560257698 -0.3929545193 -2.4812942151
C -2.9576747655 -1.60531436 -3.0623636904
H 2.0733369468 -1.943688379 -3.6853148633
H 0.7959960774 -2.0834305402 -2.4648002267
H 0.9071977647 -0.6266179521 -3.4636657045
H 3.1535239171 -0.121910284 -2.4272347313
H 2.9126471002 -1.5083158104 -1.3286214975
H 5.187878526 1.072630673 1.3047165017
H 3.7377574861 1.9190903645 1.9209581528
H 4.7451498151 0.3591495851 3.6258627743
H 3.0731906296 -0.0486289489 3.2191693348
H 4.4021128468 -1.0015079517 2.5413740785
H -0.4678443641 -0.7028311676 1.8630761567
H -0.4932957055 -2.4999135445 1.9632386444
H -2.2097423329 2.5889721233 0.7176118561
H -3.8157255469 1.8608299066 0.9903383806
H -3.0259553496 2.9889223259 3.0591371593
H -3.0928683357 1.2357307745 3.319377225
H -1.5361095121 2.0340266657 3.0307537854
H -4.7416871603 -0.4868351873 -2.5248038502
H -3.3373917944 0.5197749152 -2.9962502557
H -1.8779426042 -1.4658123034 -2.9983824501
H -3.2265175271 -2.5004159233 -2.5077016756
H -3.2378849488 -1.7232197445 -4.1039276365
*
