! pbe def2-sv(p) def2/J RI DEFGRID1 loosescf d4 GCP(DFT/SV(P)) printgap
%output
    printlevel normal
end
* xyz 0 1
C 3.3810314012 -3.1836242237 0.2802760541
C 2.9763677483 -1.8101190798 0.791325404
O 2.7084002845 -0.9070546296 -0.2979405056
C 1.5395162274 -0.964094617 -0.8932720004
O 0.6435216679 -1.7298303012 -0.5938336742
C 1.4172109883 0.0554194279 -2.0058304622
C 0.2195771189 0.9718450149 -1.7646507055
H 0.0964444559 1.6493922603 -2.6155058562
C 0.3214604149 1.8197507274 -0.5088314567
O -0.6604546707 2.2736817592 0.0472193479
O 1.5553467367 2.019427476 -0.1378134506
C 1.788734911 2.785682077 1.0625659061
C 3.2809999136 3.019180009 1.1773503921
S -1.3690152271 0.0706396237 -1.6918788166
P -1.6637083784 -0.2834648839 0.3890754695
S -0.3044737902 -0.2299749806 1.8002502271
O -2.8445499298 0.6806478659 0.8201112179
C -4.0607917166 0.8381111123 0.0702666249
O -2.48614404 -1.6572938912 0.3332088258
C -1.9275273831 -2.9512326351 0.1019588921
H 4.2385024521 -3.0980403296 -0.3815757386
H 3.6398183412 -3.8147958061 1.12381893
H 2.5562850048 -3.6407560734 -0.261495378
H 3.7890292857 -1.3346974092 1.3401178713
H 2.0846497028 -1.8668962655 1.4229810453
H 1.2583062948 -0.4791052185 -2.9435669957
H 2.3321065032 0.6440038406 -2.0525281532
H 1.2246690222 3.7203566974 0.9901928118
H 1.3959144462 2.2078889061 1.9059986187
H 3.6370888002 3.594863838 0.3284820466
H 3.4856356859 3.5636534295 2.0927773376
H 3.8006521351 2.0662670187 1.2029171189
H -3.833558392 1.1508596186 -0.94918367
H -4.6148412912 1.612855291 0.5937223584
H -4.6139779796 -0.0996195371 0.0617915379
H -1.0829254146 -3.1204732211 0.7690396935
H -1.5933523907 -3.0345562276 -0.9309303809
H -2.7319547999 -3.6521302091 0.3111125283
*
