! pbe def2-sv(p) def2/J RI DEFGRID1 loosescf d4 GCP(DFT/SV(P)) printgap
%output
    printlevel normal
end
* xyz 0 1
C 3.4757845878 -3.0568873817 0.443545803
C 2.9163110077 -1.7339359518 0.9402606906
O 2.7073932738 -0.8187705437 -0.153109861
C 1.6081521029 -0.9209450857 -0.8691040411
O 0.7151479256 -1.7188982475 -0.6581231295
C 1.5659195788 0.1038442594 -1.9832697594
C 0.3317336533 0.997855945 -1.8327389601
H 0.2839048889 1.6994702548 -2.6697863972
C 0.3434764023 1.7768528047 -0.5327607105
O -0.6316180665 1.8262945786 0.198543128
O 1.4840081026 2.3462551298 -0.2892107737
C 1.6536194608 3.0454088496 0.9660636827
C 3.1410910577 3.2232037995 1.1930272333
S -1.2423845644 0.0715062218 -1.9000365531
P -1.6371266174 -0.4160444827 0.1257494019
S -0.5503279771 -0.5569849182 1.770649376
O -3.0309531844 0.323564355 0.4319508819
C -3.2117922784 1.4426287107 1.2954428132
O -2.226710089 -1.8373755576 -0.3203121432
C -2.7671963677 -2.7655519993 0.6204623401
H 4.388447315 -2.8882148922 -0.1214077311
H 3.6912206542 -3.6941929245 1.2946491453
H 2.748087557 -3.5549007249 -0.1934851623
H 3.6250492387 -1.2202075896 1.5894840981
H 1.966641532 -1.8779157776 1.4642584655
H 1.4929075955 -0.4258975568 -2.9334454277
H 2.4706539385 0.7095789392 -1.9491372832
H 1.1354033933 4.0050325604 0.8894143187
H 1.1829574554 2.4519985898 1.75620863
H 3.5748960931 3.8015736142 0.3834383271
H 3.2979503137 3.7437358199 2.1316174527
H 3.6293722332 2.254062455 1.236755925
H -4.2352560572 1.3757158782 1.657242843
H -3.0544311534 2.3648956669 0.7394289506
H -2.505681161 1.3916932814 2.1262653464
H -2.826295101 -3.7155804492 0.0953785962
H -3.7564614974 -2.4378996739 0.9409706104
H -2.107248546 -2.8509487062 1.486881891
*
