  12
        -12.61417694
 C          1.2641788833       -0.7017943440       -0.0000006025
 C         -0.0000062530        0.1030989048        0.0000001394
 C         -0.0000936253        1.4263362721       -0.0000017729
 C         -1.2640876965       -0.7019482731        0.0000004822
 H          1.2997497910       -1.3433736433        0.8793435691
 H          1.2996313782       -1.3435735639       -0.8792030567
 H          2.1393093643       -0.0579868302       -0.0001276519
 H         -0.9140980259        1.9962668256        0.0000082716
 H          0.9138347522        1.9963854831        0.0000055756
 H         -1.2994562136       -1.3437189779        0.8792134984
 H         -2.1392895533       -0.0582385646        0.0001302932
 H         -1.2995779239       -1.3435274775       -0.8793496020
