! pbe def2-sv(p) def2/J RI DEFGRID1 loosescf d4 GCP(DFT/SV(P)) printgap
%output
    printlevel normal
end
* xyz 0 1
C 2.5675175007 -3.7477923856 0.3395123691
C 3.2647982794 -2.4331842596 0.6494316071
O 3.1363873077 -1.5069758304 -0.4495331345
C 2.0565679922 -0.7785434396 -0.5483558126
O 1.1420594059 -0.8018927616 0.2637374187
C 2.052042314 0.1047472301 -1.7664462383
C 0.8427592948 1.0232451089 -1.7536089908
H 0.7833332491 1.6113518763 -2.6722288856
C 0.8230174199 1.9715386649 -0.5659284855
O 1.6783195463 1.9850182762 0.2931080768
O -0.2103702686 2.7764954962 -0.6240546665
C -0.4323127524 3.7292442917 0.4337290211
C -1.9239844098 3.8093381903 0.6991940637
S -0.7451365373 0.0908451468 -1.798780413
P -1.2242865293 -0.5484773817 0.1611511833
S -1.1547019444 -2.4214710956 0.7647340821
O -0.9078241836 0.556823323 1.2838012517
C -0.0784264839 0.3483878865 2.4233981611
O -2.7590361916 -0.1451807234 -0.1451009769
C -3.834271108 -0.5161952241 0.7172509119
H 1.4908717717 -3.6017684356 0.2676613322
H 2.9338525826 -4.1552423668 -0.5985414576
H 2.7651222946 -4.4542551723 1.1387242897
H 4.340862952 -2.5684865765 0.7570653817
H 2.8441667433 -1.9745989652 1.5483224304
H 2.0337783973 -0.5263261735 -2.6564147339
H 2.9761764617 0.6856388823 -1.7708159888
H 0.1245852838 3.4064130157 1.3179326413
H -0.0376411428 4.688037486 0.0868207538
H -2.2993075767 2.8335060936 0.9978957421
H -2.1120143673 4.5251454609 1.4923761302
H -2.4450986384 4.1192896947 -0.2015272685
H -0.5656928508 0.8588363028 3.2517623508
H 0.9079511922 0.7724783046 2.2340044052
H 0.0115123757 -0.7190735795 2.631717378
H -3.7319359033 -1.5615346221 1.018102162
H -4.7417262498 -0.375603957 0.135448064
H -3.8430932648 0.1204246891 1.6021930752
*
