  25
        -31.28579090
 C          3.6717889197       -1.1061424272        0.1759849969
 C          2.4703334811       -0.4170007952       -0.4586937910
 C          2.0344434589        0.8114470851        0.3372958861
 C          0.8054059750        1.4838573941       -0.2794787972
 O         -0.3191028398        0.6364824590       -0.4106686886
 C         -0.9534744525        0.2948211061        0.8074635439
 C         -2.2666132017       -0.4265235111        0.4684261605
 H         -2.7974655748       -0.6419092842        1.4020456145
 C         -1.9915611955       -1.7239502349       -0.2910204610
 O         -3.1268530463        0.4296266497       -0.2525562609
 H          3.9643463147       -1.9746541650       -0.4083268558
 H          4.5176230328       -0.4243776612        0.2273954955
 H          3.4355052052       -1.4348995719        1.1855943504
 H          2.7185200378       -0.1125357461       -1.4775750023
 H          1.6338274403       -1.1162799007       -0.5189321827
 H          1.8186386419        0.5227147394        1.3679792026
 H          2.8409453821        1.5457943806        0.3597469838
 H          0.5308287510        2.3704417761        0.3112109400
 H          1.0286571993        1.7950139688       -1.3030814228
 H         -1.1698484840        1.2072572342        1.3818755791
 H         -0.3215639994       -0.3649933670        1.4138134113
 H         -2.9315696588       -2.1712146924       -0.6020667499
 H         -1.3879637531       -1.5108778710       -1.1697243718
 H         -1.4582251853       -2.4223474262        0.3465145391
 H         -2.6515665619        0.7212681503       -1.0449832269
