! pbe def2-sv(p) def2/J RI DEFGRID1 loosescf d4 GCP(DFT/SV(P)) printgap
%output
    printlevel normal
end
* xyz 0 1
C 2.9440255125 -1.2248483455 -2.9731715286
C 3.2285102555 -0.3234735069 -1.7893117925
O 2.6585694661 -0.9299197691 -0.6069656359
P 1.9483710606 -0.1295166034 0.5510783276
S 1.2378622531 1.6555875147 0.0965988386
O 3.107993137 -0.0320993198 1.6358525672
C 3.0537679653 0.8202765121 2.7955323453
C 4.4675032008 1.2502182315 3.1341112207
S 0.7539932018 -1.6397732387 1.3974001944
C -0.2728984636 -2.1815940713 -0.0236746167
S -0.4371408712 -0.9719215586 -1.3559155175
P -1.9310150626 0.2750048423 -0.5236472984
S -2.2677968308 1.9835491501 -1.4140206636
O -1.4719164524 0.2880653115 0.9933223201
C -1.8446038006 1.3478769006 1.8942964197
C -3.3330347509 1.3565383861 2.166719654
O -3.2092518187 -0.6771617679 -0.4143854594
C -4.1915775639 -0.761669887 -1.4576387315
C -3.6521976466 -1.4541683114 -2.6933414179
H 1.8713836028 -1.305917768 -3.1325637672
H 3.4070208507 -0.8019689582 -3.8587369782
H 3.3514235052 -2.2146587998 -2.7902512964
H 2.7870977033 0.6701318566 -1.9250397182
H 4.3007592094 -0.2195536274 -1.6107581486
H 2.4193884395 1.6839322502 2.566872017
H 2.6059713147 0.2456363953 3.6101922842
H 4.8873416601 1.8305728732 2.3170437813
H 4.4488697052 1.858338369 4.0325402188
H 5.0892033968 0.3755967594 3.301709453
H -1.2553533041 -2.4232257429 0.3768223484
H 0.2038391263 -3.0517920814 -0.4685637137
H -1.2656253328 1.1355268299 2.795067627
H -1.5152848295 2.299052182 1.4626285514
H -3.6548264692 0.380695149 2.5208014868
H -3.5549418991 2.1081174817 2.9176746135
H -3.8727857537 1.5994917493 1.2520101505
H -5.0109410855 -1.3214545555 -1.0046282165
H -4.5215549416 0.252902891 -1.7029192932
H -2.8524636285 -0.8570344937 -3.1314298948
H -3.2599035896 -2.4359299523 -2.4415706449
H -4.4500232715 -1.5606739406 -3.4212202317
*
