! pbe def2-sv(p) def2/J RI DEFGRID1 loosescf d4 GCP(DFT/SV(P)) printgap
%output
    printlevel normal
end
* xyz 0 1
C 4.2494585562 -0.5119495588 -2.0144068052
C 2.8383749969 -0.0581876792 -2.3200122712
O 2.2126972395 0.6692579153 -1.2346887244
P 2.0656824596 0.2361228895 0.2710374639
S 0.7861973613 1.4368240043 1.1420189749
O 3.5519854111 0.3251749566 0.8180061927
C 4.0469780024 -0.3167358973 2.0083959591
C 3.1952969075 -0.0403056875 3.22923549
S 1.6882581831 -1.8583939074 0.3151994541
C 0.0321322778 -1.925752732 -0.4113891141
S -1.2995315646 -1.3321787108 0.6783110784
P -2.0357480869 0.2921577489 -0.4938201182
S -1.028333511 0.6981853252 -2.1208207315
O -2.2718355194 1.5211932855 0.4466563711
C -2.9602415758 1.4186659691 1.7228108709
C -2.505168828 2.5752380666 2.5858341479
O -3.5446279908 -0.1531326637 -0.7731914531
C -3.8556908934 -1.2536524064 -1.6493148723
C -5.3472493022 -1.229670649 -1.9149235618
H 4.6874782916 -0.916448957 -2.9218738325
H 4.8478076736 0.3276323125 -1.6704566455
H 4.2469792213 -1.2845868344 -1.2488040671
H 2.1987978154 -0.9081841242 -2.5719732151
H 2.8133105773 0.6628607601 -3.1389701314
H 4.1046895116 -1.3913683855 1.8142164055
H 5.0513747126 0.0950508638 2.1216326832
H 3.6610014956 -0.4864940057 4.1019809939
H 3.0889745076 1.0310714213 3.383340881
H 2.2013137192 -0.4667742834 3.0994996274
H -0.148133937 -2.9794457045 -0.6083013139
H 0.0023933383 -1.3327335921 -1.3303483167
H -4.0322526073 1.4543636444 1.5195947264
H -2.7048490134 0.4587756581 2.1811708199
H -2.7609557105 3.5186232461 2.1123131755
H -2.9883066468 2.509947733 3.5551070714
H -1.4255683015 2.5329017456 2.7130649482
H -3.2802478234 -1.1343277796 -2.5734067045
H -3.5537883653 -2.1807326689 -1.1529271775
H -5.8922891776 -1.3284105174 -0.9807894425
H -5.625788062 -0.2921290805 -2.3877753748
H -5.6048713815 -2.053679482 -2.5719729052
*
