! pbe def2-sv(p) def2/J RI DEFGRID1 loosescf d4 GCP(DFT/SV(P)) printgap
%output
    printlevel normal
end
* xyz 0 1
C 3.2831231614 2.0662207889 -1.8210268186
C 3.3692368064 1.6238660612 -0.3745366333
O 3.0258236442 0.2246963853 -0.2750695041
P 2.0123412333 -0.3887778116 0.7702004879
S 1.0670759308 0.924752172 1.8824599356
O 2.9982380599 -1.3507896862 1.5604951415
C 2.637110477 -2.5664256162 2.2384885062
C 1.4544811627 -2.3923782615 3.1689523175
S 0.8723909266 -1.7592138661 -0.4054473058
C 0.6008563793 -0.7306931739 -1.8767332874
S -0.0928865491 0.8969615241 -1.5141220366
P -2.0677348097 0.3088811775 -0.9660163781
S -2.6874657683 -1.3091166932 -1.8718425215
O -2.9238725056 1.5817000819 -1.3264527743
C -3.0394181575 2.7809575468 -0.5200854748
C -1.7020028938 3.4309527548 -0.2387605888
O -2.1280762445 0.2827506628 0.6240021376
C -2.1205874171 -0.9081513799 1.4269308766
C -3.5288828161 -1.235754824 1.8806304549
H 2.2561715585 2.0081964484 -2.1755555669
H 3.6238550345 3.0937693563 -1.8932898285
H 3.9135938918 1.4360224076 -2.4419755174
H 2.691856167 2.2029280784 0.2623491431
H 4.3885375162 1.7144734913 0.0064721965
H 2.4236793266 -3.3271670901 1.4820056987
H 3.5422299586 -2.8332353516 2.7870456019
H 0.5616989378 -2.15329644 2.5914970686
H 1.2846912835 -3.314900332 3.7146358386
H 1.6416332179 -1.5850252619 3.8733337466
H -0.09537961 -1.2921186461 -2.5017584301
H 1.5493782114 -0.5670705236 -2.3821914667
H -3.6802304645 3.4223785347 -1.1269890498
H -3.5458038358 2.5180972736 0.410456713
H -1.0940884205 2.7915966104 0.4006362835
H -1.1655413661 3.6166851182 -1.1665115106
H -1.8670114525 4.3740825622 0.2729829078
H -1.7018640033 -1.7384857508 0.8496367137
H -1.4683978374 -0.6730495871 2.2715582104
H -4.1538652002 -1.4504133744 1.0157842948
H -3.5016124393 -2.1088155534 2.5243824335
H -3.9527539306 -0.397893933 2.4268719423
*
