! pbe def2-sv(p) def2/J RI DEFGRID1 loosescf d4 GCP(DFT/SV(P)) printgap
%output
    printlevel normal
end
* xyz 0 1
C 4.7117025232 -2.2028296849 -0.0293205025
C 4.4793027467 -0.7539656799 0.3484378941
O 3.8058755703 -0.0639333735 -0.7394324884
P 2.3284721538 0.4646639392 -0.6444340581
S 1.7445675676 1.2525774544 -2.3333886153
O 2.4371952922 1.4412837638 0.6098461955
C 1.3535706099 2.276962314 1.050867846
C 1.9105532385 3.2526827067 2.0665534201
S 1.1871852342 -1.1744413286 0.0989518002
C 0.0385946157 -1.4325324292 -1.294561309
S -1.5961934914 -1.9133650548 -0.7189133296
P -2.112405826 -0.0716555103 0.2298619221
S -1.6199046991 1.5650981858 -0.7274883955
O -1.4153610177 -0.0695997206 1.6442117889
C -1.5914754853 -1.1250508415 2.6241794484
C -2.5764521229 -0.6941509513 3.6910034537
O -3.6363959051 -0.2985887274 0.6095545831
C -4.6576829248 -0.7618517996 -0.2940915502
C -4.7458339919 0.0701624414 -1.5558798076
H 5.245671667 -2.2578676942 -0.9737542987
H 5.3024837309 -2.6804851528 0.7457336311
H 3.7641728623 -2.7264708413 -0.1281784022
H 5.4205821024 -0.2190293098 0.4816692739
H 3.8769142683 -0.6690839129 1.2554041454
H 0.9282702638 2.7925700899 0.1833344827
H 0.5758271415 1.6424104593 1.4879579873
H 2.6840860853 3.8623705629 1.6081862317
H 1.1085499945 3.8936358869 2.417435604
H 2.3366903404 2.7116378065 2.9063372133
H 0.4006000818 -2.2519148588 -1.9105153857
H -0.0212212207 -0.5020112083 -1.8677623765
H -1.9274847362 -2.0318918427 2.1142805742
H -0.5940234436 -1.2878264964 3.0370492813
H -2.2368926545 0.2225409325 4.1650109355
H -3.5538238515 -0.5173043228 3.2499477207
H -2.6550895674 -1.4773278504 4.438376355
H -4.4499908033 -1.8080693636 -0.5345895885
H -5.5738681216 -0.6893152585 0.2945780016
H -5.5781035778 -0.2757822261 -2.1603185061
H -4.8899504251 1.1198421861 -1.3102551725
H -3.8265385922 -0.0221518463 -2.1331364669
*
