! pbe def2-sv(p) def2/J RI DEFGRID1 loosescf d4 GCP(DFT/SV(P)) printgap
%output
    printlevel normal
end
* xyz 0 1
C 2.8994613807 -2.9807731171 -1.7417043455
C 3.7339510129 -2.3701548732 -0.6349655173
O 3.665938282 -0.9220691286 -0.6403974041
P 2.5021340495 -0.0399264517 -0.0594943532
S 3.0864559972 1.8243160305 0.0744903087
O 2.1666396407 -0.836786994 1.2783481275
C 1.0986594569 -0.5717505993 2.2032806234
C 1.3110446283 0.7076209665 2.9864196672
S 0.809868017 -0.3431740357 -1.3460053101
C 0.1425959526 1.3310289204 -1.32455918
S -0.8282717037 1.6841405952 0.1609473934
P -2.4609462031 0.4021483651 -0.3027559314
S -2.980676158 0.3466003981 -2.1858019253
O -3.6328279203 0.9152258114 0.6226887539
C -3.6490290714 0.814681333 2.0705408829
C -3.064218364 2.0530584248 2.7184257507
O -2.045595226 -1.0018548463 0.3407226609
C -1.9620321714 -2.2448755982 -0.3930063704
C -0.9526268103 -3.1400860072 0.2958099777
H 3.1869777932 -2.5634752813 -2.7030597525
H 3.0611160411 -4.054074303 -1.7551350422
H 1.8413197625 -2.7831802739 -1.5824344983
H 4.7962636591 -2.5707523362 -0.7829298557
H 3.4222895557 -2.7305861419 0.3462577574
H 0.1513328261 -0.5396729238 1.6579282049
H 1.1121040527 -1.4430874657 2.8614662562
H 0.5484395462 0.7867536366 3.7545398555
H 2.2926463945 0.7035125142 3.4532676833
H 1.242912569 1.5738847683 2.3311745782
H -0.4966736341 1.429030727 -2.2019210343
H 0.9647765225 2.047985514 -1.3393149541
H -4.7084181153 0.7076203746 2.3096120205
H -3.1076532132 -0.0850897807 2.3677394935
H -2.0052881839 2.1472980528 2.4871525811
H -3.577560351 2.9404937119 2.3585762868
H -3.1884403214 1.9804044178 3.7943527217
H -2.9576577041 -2.6946584193 -0.3906396493
H -1.6738053443 -2.0304446433 -1.4261234751
H -0.9308949539 -4.0978354796 -0.2134836372
H 0.0375416172 -2.6948407374 0.255693304
H -1.2338842148 -3.2911845531 1.333787456
*
