! pbe def2-sv(p) def2/J RI DEFGRID1 loosescf d4 GCP(DFT/SV(P)) printgap
%output
    printlevel normal
end
* xyz 0 1
C 4.4516614725 -2.3231916862 -0.6670118547
C 5.0128505393 -0.9273402712 -0.4923880055
O 4.0760348677 -0.0339583349 0.1387745722
P 2.7057610814 0.391599457 -0.5396088817
S 2.7489983507 0.7198684335 -2.4708277073
O 2.3197450064 1.7016733043 0.2479578269
C 2.6310463369 1.9971857966 1.6320620452
C 1.9642240127 1.0401030452 2.5969374898
S 1.3208690888 -1.1236478922 0.0389434913
C -0.023718984 -0.5654255861 -1.0226345518
S -0.8372531401 0.9438509081 -0.38469687
P -2.7112470271 0.1004387201 0.1289966656
S -4.0534418103 1.3486966246 0.8200260739
O -2.3854174653 -1.2021823364 0.9853237899
C -1.6785840647 -1.2715375594 2.2380239674
C -1.9613457378 -0.1018183119 3.1564521257
O -3.0964015692 -0.5814684454 -1.2535274515
C -4.4669091071 -0.8350804616 -1.6189176468
C -5.0550787187 -1.9639555344 -0.7991681069
H 5.2385134355 -2.9820066759 -1.0201027872
H 4.0624047391 -2.6979066922 0.2761639113
H 3.647430837 -2.3123078702 -1.4009622627
H 5.2950880887 -0.5025347484 -1.4603771932
H 5.8703166394 -0.9183899694 0.1820652128
H 3.7162927224 1.9798858685 1.7480623615
H 2.257843898 3.0151896046 1.7545848673
H 2.372752726 0.0383563096 2.4826132064
H 2.1421909626 1.3827299644 3.6114382165
H 0.8927598171 1.0120375549 2.4146469004
H -0.7536453184 -1.3670766534 -1.0872107925
H 0.3852794654 -0.3208421251 -2.0039613763
H -2.0184965371 -2.2113213476 2.6773873469
H -0.6100937805 -1.3419699205 2.0111318177
H -1.6518698247 0.8316893678 2.6854399445
H -3.024769001 -0.0329306332 3.3741843523
H -1.4123882188 -0.2323412143 4.0836316918
H -5.0423570199 0.0854605713 -1.477339456
H -4.415774498 -1.0818484539 -2.6801742189
H -4.4440455442 -2.8575848685 -0.8933100094
H -5.092460088 -1.6705868284 0.2491528818
H -6.0621996993 -2.1743528244 -1.1448374314
*
