! pbe def2-sv(p) def2/J RI DEFGRID1 loosescf d4 GCP(DFT/SV(P)) printgap
%output
    printlevel normal
end
* xyz 0 1
C 4.1105397427 -2.2014747481 1.1092683047
C 2.6506974208 -2.0971673131 0.7166264327
O 2.5476263437 -1.1554669946 -0.3710469534
C 1.3953684707 -1.0211558486 -0.9732119035
O 0.3946428883 -1.6562503279 -0.6795159711
C 1.4219740613 0.0164830108 -2.0701740069
C 0.2918530007 1.0226104792 -1.859574707
H 0.2656419373 1.7354750898 -2.6886754516
C 0.3989945086 1.8091820025 -0.563646959
O -0.5636502037 2.3148344112 -0.021894261
O 1.628318351 1.8848335424 -0.1291064473
C 1.8683362267 2.5772797544 1.1148017172
C 3.3647332375 2.5942618331 1.3492332986
S -1.3696591935 0.2474872668 -1.9039509619
P -1.7062815278 -0.2897472775 0.1086858014
S -0.5310433191 -0.2162255852 1.6914896122
O -2.9766562455 0.6695980182 0.2589538309
C -3.7196153804 0.7652042186 1.4768856766
O -2.4758145419 -1.6893033785 0.0046472668
C -1.9286466171 -2.9767100636 0.2869556424
H 4.2099448714 -2.9101554677 1.9244284174
H 4.700955968 -2.5405189216 0.2634590109
H 4.4810735253 -1.2335588419 1.4322001612
H 2.0285333155 -1.733140774 1.5409279836
H 2.2485868234 -3.0575569014 0.3795432954
H 1.2615469606 -0.4853325607 -3.0253812273
H 2.3867856466 0.5213936553 -2.062471905
H 1.4476196858 3.5839206199 1.0352039171
H 1.3337586063 2.0399728908 1.9054555706
H 3.7427563522 1.5769473764 1.3805617589
H 3.8633635877 3.1329042998 0.5494051946
H 3.5707668851 3.0822000799 2.2956891112
H -3.0393286218 0.8521270286 2.3270849334
H -4.3513432481 -0.1150007969 1.595699282
H -4.3222020057 1.6648006127 1.3821553101
H -1.4199221298 -3.3602200948 -0.5948034685
H -2.7764928927 -3.6032228772 0.553844584
H -1.222548632 -2.9082760204 1.1158431635
*
