! pbe def2-sv(p) def2/J RI DEFGRID1 loosescf d4 GCP(DFT/SV(P)) printgap
%output
    printlevel normal
end
* xyz 0 1
C 3.9086369779 -3.7589441814 0.4951867091
C 2.8939412671 -2.6831586144 0.8270391925
O 2.8902509575 -1.7284546526 -0.2552510031
C 1.8836498084 -0.9019995003 -0.3565281334
O 0.9513996764 -0.8715083894 0.4337085447
C 1.9777487867 0.0095173885 -1.5511143077
C 0.7760358474 0.9371181944 -1.6028889535
H 0.7831871857 1.5376380071 -2.5160823884
C 0.6941904506 1.876433996 -0.410172273
O 1.5404033098 1.9305494074 0.4536906136
O -0.3835620406 2.6274070096 -0.4682829824
C -0.5850064213 3.6214979245 0.5549135341
C 0.1331637114 4.9131097527 0.1990773601
S -0.8055904799 0.0145108337 -1.767877267
P -1.4489410519 -0.682232867 0.1381794167
S -1.3133554305 -2.5601566195 0.6808212826
O -1.2129312461 0.4587448184 1.2462150175
C -0.4867510364 0.2700416657 2.4591243641
O -3.0197087911 -0.4847199611 -0.1378561896
C -3.6500264165 0.7875870855 -0.3515807792
H 3.6253729772 -4.270712888 -0.4196114236
H 4.8903162733 -3.3145943667 0.3626177213
H 3.9441979771 -4.4766558894 1.3077263757
H 3.1566426483 -2.1495400294 1.7452837585
H 1.8830161489 -3.0896276559 0.9375478156
H 2.0308573035 -0.5970226233 -2.4560590231
H 2.9000440568 0.5877175984 -1.4648508577
H -1.6655444944 3.7614399316 0.5887516814
H -0.2247422442 3.2229584788 1.5069410839
H -0.1932295264 5.2661821397 -0.77502944
H -0.0950642026 5.6648018143 0.9473684198
H 1.2084186079 4.7513288345 0.1782536003
H -1.0481139964 0.789020754 3.2334623294
H 0.5123360507 0.6931696435 2.3508567617
H -0.4091026975 -0.7930004363 2.6914594802
H -3.0956029537 1.370013954 -1.0877381106
H -3.7057665896 1.3303505087 0.59089151
H -4.6456590491 0.5542747553 -0.7204162307
*
