! pbe def2-sv(p) def2/J RI DEFGRID1 loosescf d4 GCP(DFT/SV(P)) printgap
%output
    printlevel normal
end
* xyz 0 1
C 1.4035739854 2.2214732599 1.8533237197
C 2.673945617 2.1293876824 1.0321918184
O 2.6304903633 1.0438496905 0.0879411363
P 2.6871392727 -0.4694851314 0.5634167394
S 3.7359687949 -0.8462166771 2.1719904857
O 3.2641599891 -1.0551041002 -0.8004930248
C 3.9344407483 -2.3260453829 -0.8455714323
C 2.9831787208 -3.4857187641 -0.6234091651
S 0.6567460229 -1.108523798 0.5803226959
C 0.2029961047 -0.4780476114 -1.0680689207
S -0.6952518261 1.0862767098 -1.0132884657
P -2.6872119607 0.325863732 -0.8315590544
S -2.8921170515 -1.539557605 -1.3979218904
O -3.6116093871 1.2444230734 -1.7130743316
C -4.0230765511 2.5975355642 -1.3980500007
C -2.8563875465 3.5602409057 -1.339255987
O -3.162243765 0.7295306615 0.6355898697
C -2.4937085776 0.3695596929 1.8550424858
C -2.6541756295 -1.0984008686 2.193027629
H 1.2915496111 1.3225666863 2.4600152075
H 1.462384815 3.0839226066 2.5092925664
H 0.5425252592 2.3247276817 1.1975960864
H 3.5423060276 1.9874460644 1.6833718306
H 2.8155027884 3.012578386 0.4082284494
H 4.3783803939 -2.3539113786 -1.8418112921
H 4.7240599467 -2.3290860562 -0.0873768902
H 3.5213998784 -4.4192233687 -0.7532679147
H 2.5809349455 -3.4498141355 0.3887898224
H 2.1586429335 -3.4474530179 -1.3314683629
H -0.4430135969 -1.2284296046 -1.5291583035
H 1.1083052037 -0.3140649891 -1.6468453381
H -4.7055639358 2.8432211234 -2.2130786247
H -4.56601848 2.5778582332 -0.4515824638
H -2.202573791 3.3152654103 -0.5043665571
H -2.2792630326 3.5141682036 -2.2592230139
H -3.2355955851 4.5686039947 -1.2052420845
H -1.4343172657 0.6294122383 1.7702267847
H -2.9679465421 1.0033861487 2.6066380946
H -2.2159583845 -1.2903722854 3.1669801914
H -3.7064892796 -1.3698186325 2.2094686644
H -2.1459591889 -1.7168254227 1.4552701456
*
