! pbe def2-sv(p) def2/J RI DEFGRID1 loosescf d4 GCP(DFT/SV(P)) printgap
%output
    printlevel normal
end
* xyz 0 1
C 5.7633916401 0.9559509487 -0.9865251657
C 4.3998965572 0.3991050313 -1.341753956
O 3.5990723429 0.3983480696 -0.1417518421
P 2.0201854631 0.2411111898 -0.1983270119
S 1.0843013932 1.5058361504 -1.3647887111
O 1.6270600242 0.3886631184 1.3189042089
C 2.2983622781 -0.3792488564 2.3612839767
C 1.276036361 -0.7962072694 3.3973686499
S 1.7944767684 -1.812925904 -0.7050750985
C 0.0230357458 -1.7940839261 -1.0532648731
S -0.9780836174 -1.4802347346 0.4305731045
P -2.1319578086 0.1897732674 -0.2170413101
S -2.2922236882 0.4217900384 -2.1519194858
O -1.547880774 1.4838925338 0.4637886531
C -1.3923508982 1.6280812427 1.8961653442
C -2.4900128364 2.5058094606 2.4602929433
O -3.470346019 -0.0088249664 0.6205799159
C -4.2624566225 -1.2105509629 0.6729184611
C -4.71270995 -1.6822381065 -0.6934855844
H 6.3910008588 0.9507697159 -1.8715055994
H 5.6668501027 1.9745540071 -0.6214277377
H 6.2228814183 0.3458177425 -0.2145967808
H 4.4691496909 -0.6298540168 -1.7045125806
H 3.8960915313 1.012420193 -2.0960673635
H 2.7766949951 -1.2491126069 1.9031096878
H 3.0624080724 0.2738698996 2.7848299346
H 0.7962091477 0.0785592333 3.8264667481
H 0.518687704 -1.4322190279 2.9455991338
H 1.7813609905 -1.3487909047 4.1829315934
H -0.2204951827 -2.7856310907 -1.4265343275
H -0.2090612567 -1.0239494481 -1.7951663729
H -1.4001967357 0.6355113511 2.3554647737
H -0.406691289 2.0821983657 2.0212969487
H -2.3237636522 2.6439923784 3.5239961084
H -2.482032471 3.4730763061 1.9651915013
H -3.4594728126 2.0406219226 2.3021952769
H -3.6761603944 -1.9842868312 1.176112896
H -5.1134142756 -0.9266755377 1.2946970938
H -5.2354475054 -0.8852631697 -1.2169426056
H -3.8538949769 -1.9758607755 -1.2948866925
H -5.3752973683 -2.5340434488 -0.5792943771
*
