! pbe def2-sv(p) def2/J RI DEFGRID1 loosescf d4 GCP(DFT/SV(P)) printgap
%output
    printlevel normal
end
* xyz 0 1
C 2.3957641227 -4.70621e-05 -0.0457761773
N 0.9877244493 3.57258e-05 0.2910245823
C 0.3173046686 1.1867635124 -0.2135460371
C -1.1394309292 1.1883884873 0.2405096425
N -1.7945072578 9.14346e-05 -0.278719496
C -1.1395486739 -1.1884283449 0.2403341995
C 0.3172909348 -1.1867834517 -0.2133774425
H 2.8619487369 -0.8851194184 0.383310923
H 2.8618688094 0.885637807 0.3821747712
H 2.5708891101 -0.0007239505 -1.1334658463
H 0.826764589 2.0679830619 0.1819304314
H 0.3485362268 1.2246345758 -1.3171990751
H -1.1602794496 1.2250471054 1.3433289929
H -1.6469019962 2.0707326649 -0.153362752
H -2.7728836085 9.34045e-05 -0.0093352423
H -1.1607335961 -1.2253794961 1.343191851
H -1.646951381 -2.0706325859 -0.1539981548
H 0.8266173872 -2.0678332609 0.1823346759
H 0.348827431 -1.2249336208 -1.3169663937
*
