! r2scan-3c def2/J RI DEFGRID2 scfconv6 printgap
%output
    printlevel normal
end
* xyz 0 1
C 1.1318944439 -0.0070777885 2.9256096256
C 2.6282101487 -0.0587589248 2.6945743093
O 3.0006618739 0.5297221626 1.436418107
P 2.6646508826 -0.1562956942 0.0413958826
S 2.8227281541 -2.1148382957 0.0243739853
O 3.6195387354 0.6308496553 -0.9455284086
C 4.9756913008 0.2116864028 -1.2057907939
C 5.86345497 0.3499495655 0.0134381423
S 0.8359614222 0.6935697533 -0.616400546
C -0.102204435 -0.8281710622 -0.9525141052
S -1.4084812553 -1.1294292998 0.2577322012
P -2.7720401347 0.3060935958 -0.5371876775
S -2.9078117685 0.3579093173 -2.4867657781
O -2.3117247231 1.6920589215 0.0515979387
C -2.1832060004 1.9475660714 1.4744527484
C -1.1957859089 3.0822546826 1.6516768023
O -4.1203223565 0.0371369882 0.261287326
C -5.1104251125 -0.9154897315 -0.1692222555
C -4.5889505315 -2.3374961416 -0.1543031347
H 0.6194751524 -0.6471954789 2.2070716458
H 0.9101095211 -0.3625541423 3.9266962838
H 0.7706123118 1.0120801439 2.8162800651
H 2.9843533224 -1.0939315341 2.7122786021
H 3.1701651845 0.5342894876 3.4324372285
H 4.9548207849 -0.8262246351 -1.5534508728
H 5.2969350288 0.8668341892 -2.0166864828
H 5.5560107088 -0.3587409291 0.781015344
H 6.8913997954 0.1416173487 -0.2667398214
H 5.7939928288 1.3572755194 0.4154311664
H 0.5759709538 -1.6833947781 -0.9147902514
H -0.5601179753 -0.7262614159 -1.9369907439
H -3.1728508966 2.2100327614 1.8524524121
H -1.8404964519 1.0316399989 1.9651420234
H -0.2321287606 2.8090134919 1.2280574175
H -1.5547302177 3.9702790853 1.1397212932
H -1.0839614378 3.297175367 2.7096971484
H -5.9261317371 -0.777408415 0.5419127487
H -5.4405853226 -0.6374089004 -1.1746195
H -5.4071315929 -3.0205563711 -0.3588001345
H -3.8266909317 -2.4632053621 -0.9218779746
H -4.15426593 -2.57263503 0.8140099807
*
