! pbe def2-sv(p) def2/J RI DEFGRID1 loosescf d4 GCP(DFT/SV(P)) printgap
%output
    printlevel normal
end
* xyz 0 1
C 5.0533678374 -0.2752855356 -2.6966397946
C 3.6924633833 -0.7256400084 -2.2065034177
O 3.4297715838 -0.058009538 -0.9537191497
P 1.9593098766 0.0332803475 -0.367322959
S 0.6360182186 0.7504968716 -1.6237358936
O 2.1410730085 0.9491323283 0.8977268344
C 3.3296739027 1.0491508278 1.7229858084
C 3.6142565974 -0.2206220632 2.4969625511
S 1.6327890082 -1.9731489226 0.2806125262
C 0.0155977038 -1.8133918081 1.0774162671
S -1.3629519084 -1.6465483048 -0.1014667727
P -2.0538772681 0.2705205833 0.4502653026
S -0.9469931409 1.3558272412 1.6407904235
O -3.4238664217 -0.2199965523 1.1288004457
C -4.127551144 0.5740172613 2.1009039969
C -4.7959802155 1.7804857777 1.472329495
O -2.4701814729 1.053188739 -0.8609433583
C -3.4264594798 0.5639010949 -1.8320377507
C -2.7399231566 -0.1827600048 -2.9581575871
H 5.0561265739 0.7992466373 -2.8574564534
H 5.8145625199 -0.5251022782 -1.9634472891
H 5.2766205595 -0.7773087127 -3.6321175178
H 3.6666269972 -1.8032291122 -2.0262530639
H 2.9000974756 -0.4600668901 -2.9138830834
H 4.1688541378 1.3144667052 1.0782932348
H 3.0903801548 1.8802574419 2.3887123372
H 3.8800229151 -1.029937128 1.8209237945
H 4.4432782301 -0.0373881598 3.1735491639
H 2.7421345513 -0.5135129878 3.0764743802
H 0.0166181336 -0.9403018328 1.7354306451
H -0.1285699216 -2.7354720799 1.6337130145
H -4.8553213669 -0.1174018431 2.5277222362
H -3.4150138013 0.8885965781 2.8700513858
H -4.0402856114 2.4371377784 1.0410488184
H -5.4843315338 1.4718337631 0.6897034559
H -5.3412538984 2.3265571858 2.2357036059
H -4.1578926706 -0.069099258 -1.322419029
H -3.9071770107 1.4722394267 -2.19995903
H -3.4542246502 -0.3567718499 -3.7564730228
H -1.9083817787 0.4074513943 -3.336561837
H -2.3518270922 -1.1375375863 -2.6111943189
*
