! r2scan-3c def2/J RI DEFGRID2 scfconv6 printgap
%output
    printlevel normal
end
* xyz 0 1
C 3.5676867403 0.6913395326 0.0019080746
C 3.5677190034 -0.6912762146 0.0023389453
C 2.3691076273 -1.3869440539 0.000787639
C 1.1686191597 -0.6973195559 -0.0010320512
C 1.1685940337 0.6973082639 -0.0012538751
C 2.3690460136 1.38695592 0.0001579848
O 4.1331e-06 1.4301875935 -0.0027261345
C -1.1685931235 0.6972781925 -0.0010982105
C -2.3690896922 1.3869075282 0.0008455563
C -3.5677506064 0.6913263389 0.0023823717
C -3.5677207786 -0.691277935 0.0018546211
C -2.3690783231 -1.3868995877 7.21576e-05
C -1.1685894789 -0.6973403591 -0.0012884214
O 1.7397e-05 -1.430227648 -0.0025685764
H 4.4973743521 1.236650544 0.0032293918
H 4.4972802653 -1.2366857908 0.0038076808
H 2.3396325635 -2.4642863167 0.0009336718
H 2.3396897399 2.4643116765 -0.0001363691
H -2.3395284879 2.4642393913 0.0012130082
H -4.4972011292 1.236832628 0.0040734205
H -4.4972824236 -1.2368194202 0.0033580689
H -2.3397176611 -2.4642989 -5.63435e-05
*
