! r2scan-3c def2/J RI DEFGRID2 scfconv6 printgap
%output
    printlevel normal
end
* xyz 0 1
C 4.0028432115 -1.3682681232 -2.6471386676
C 4.2519079477 -1.8458913199 -1.2312360621
O 3.0412469782 -1.8836221712 -0.4561359016
P 2.2746537866 -0.5634628815 -0.0095790391
S 3.4582439498 0.9200929939 0.4986416561
O 1.3104255699 -1.1368506659 1.1078993466
C 1.7582923773 -1.3559383646 2.4676009238
C 1.3953302475 -0.1769185146 3.348619763
S 0.8638733034 -0.189737381 -1.5350620014
C 0.4095781926 1.468414771 -0.9591172217
S -0.5905366842 1.4368804863 0.5452408284
P -2.3182982781 0.5596759658 -0.3523582437
S -2.706958635 1.176368205 -2.1656055058
O -3.4404202094 0.8343274703 0.7385165214
C -3.9758027639 2.1595396332 0.9437648918
C -5.2477078298 2.0239504001 1.7556474176
O -2.1581227154 -1.0021271462 -0.2714068555
C -1.9998042778 -1.7235166354 0.9781397857
C -1.4177501213 -3.0824608813 0.6514019479
H 4.9167305873 -1.4605452128 -3.2251356982
H 3.2182486564 -1.9589971439 -3.1135081694
H 3.6942906998 -0.323389245 -2.6387100595
H 4.9668244181 -1.1895247849 -0.7245130467
H 4.6105400549 -2.8757419589 -1.20908377
H 1.2439471361 -2.2654874783 2.7819834676
H 2.8380771292 -1.5262595905 2.4676286857
H 0.3272822616 0.0175772984 3.3027113488
H 1.678192731 -0.3961887616 4.3730995182
H 1.9207170197 0.7165255945 3.0182755211
H -0.1642414328 1.9318166046 -1.761981487
H 1.311913621 2.0359978366 -0.7303112213
H -3.2237022155 2.7522817574 1.4711657291
H -4.1677466815 2.6115996733 -0.0346108891
H -5.9710884863 1.4183468656 1.2170286527
H -5.0317294226 1.5516506022 2.709407926
H -5.6650614321 3.0102903847 1.9290490685
H -1.3359490639 -1.148786415 1.6298894114
H -2.9848617485 -1.8040496366 1.4408777882
H -0.4261382654 -2.9712353989 0.2194327123
H -1.3511007439 -3.6705698999 1.5611419438
H -2.0540751304 -3.5953362327 -0.0641231134
*
