! r2scan-3c def2/J RI DEFGRID2 scfconv6 printgap
%output
    printlevel normal
end
%cpcm
    smd true
    smdsolvent "water"
end
* xyz 0 1
C 3.0685334859 1.4990691803 2.8896269124
C 1.6834495447 0.9843945104 2.5595853595
O 1.4856987472 0.8516947014 1.1348361839
P 2.2639295864 -0.2375769728 0.2859706928
S 2.6922123093 -1.9119923825 1.217183157
O 3.5145797964 0.591949442 -0.2348523737
C 4.681605655 -0.040109711 -0.7887773204
C 4.3972272673 -0.6940079118 -2.1255517177
S 0.9871348841 -0.3746587264 -1.393482333
C -0.105181846 -1.645916945 -0.6987323116
S -1.1620301765 -1.0273313296 0.6305416313
P -2.3414304112 0.2598726949 -0.6053070961
S -2.7022220233 -0.3836007521 -2.4131540978
O -1.5790764497 1.6409773808 -0.6073585619
C -1.3173444192 2.4057410922 0.5938771738
C -2.3220065755 3.5300533539 0.7373848695
O -3.6153890193 0.5719443844 0.2932757528
C -4.7950735186 -0.2535198935 0.2755093678
C -4.5397344954 -1.641134812 0.8263930035
H 3.26664133 2.4206541886 2.3486785988
H 3.1393965643 1.6820062601 3.9572164384
H 3.8157019715 0.7580754132 2.6078335025
H 0.9070690691 1.6849361756 2.869376885
H 1.5103893988 0.0082488584 3.0237165453
H 5.4010416208 0.7743393693 -0.8832296735
H 5.0472127317 -0.7808670608 -0.0702533137
H 3.7216504177 -1.5381780068 -1.9919940132
H 3.9340449186 0.0178515642 -2.8044859787
H 5.3266619398 -1.052031799 -2.5566240516
H 0.4950839508 -2.4511021825 -0.2748261449
H -0.7275820882 -1.9994994097 -1.5206261036
H -1.3488707226 1.731826 1.4548365833
H -0.3023641767 2.7865325187 0.4618018676
H -3.3220975053 3.1255291855 0.8683151361
H -2.0615340218 4.1321447962 1.602232516
H -2.309306545 4.1537948335 -0.1521426984
H -5.506672223 0.2985727995 0.8911247853
H -5.1580865005 -0.3102877553 -0.7550958714
H -3.8863432939 -2.1951575893 0.1541543088
H -4.0680491006 -1.581518777 1.8041282872
H -5.4834198784 -2.1702274291 0.9124298959
*
