! pbe def2-sv(p) def2/J RI DEFGRID1 loosescf d4 GCP(DFT/SV(P)) printgap
%output
    printlevel normal
end
* xyz 0 1
C 4.0309977075 1.9061086988 -1.4216673915
C 2.8084634097 1.1531398257 -1.9056464927
O 2.5435962925 -0.0052865052 -1.0955392235
P 2.026857536 0.1026710641 0.4086146476
S 1.0524460988 1.697087419 0.9609878262
O 3.326398524 -0.0285110631 1.3205531583
C 4.2643418402 -1.1214920946 1.1818271244
C 4.18962984 -2.0291698359 2.3936486928
S 1.075621934 -1.7819612525 0.5576241354
C -0.4076987929 -1.3023545983 1.5044216485
S -1.9545843319 -1.6640528036 0.632548108
P -2.0293038514 -0.0440177299 -0.6998974483
S -0.5928409792 0.2758555415 -1.9890062312
O -2.2822120136 1.1213602753 0.3664560051
C -2.2676192691 2.5087656649 -0.0271946326
C -2.2497234498 3.3472012467 1.2330915137
O -3.3834425891 -0.2365156055 -1.5020515353
C -4.6624084444 -0.4616757048 -0.8565541884
C -5.039369764 -1.9279296706 -0.9180703627
H 4.901456898 1.2549762568 -1.4257951522
H 4.211505179 2.7538394085 -2.0749653498
H 3.8632849217 2.2689289279 -0.4073710718
H 2.9444804257 0.7457008761 -2.9084094836
H 1.9200859592 1.7924051766 -1.8973610109
H 4.0461229463 -1.6680344695 0.2595119522
H 5.2446985901 -0.6476330688 1.1038817478
H 3.2241514011 -2.526665032 2.4371147056
H 4.9722809785 -2.7778367081 2.3240135231
H 4.3286528952 -1.4459426511 3.2995812037
H -0.3560733606 -0.2352857864 1.7344182762
H -0.4385326796 -1.9052168795 2.4078907706
H -1.3757339816 2.6881296357 -0.6362284165
H -3.1571969056 2.7031816945 -0.6332025492
H -3.0973368663 3.0931147082 1.8624888473
H -1.3286082535 3.1633108495 1.7805779352
H -2.2989568867 4.3962968071 0.961541134
H -4.6103432546 -0.1072123075 0.1758801921
H -5.3653259774 0.1503937927 -1.4246793764
H -5.0289319235 -2.2698895018 -1.9492182528
H -4.3368716384 -2.5263788901 -0.3420318069
H -6.0360444625 -2.0544827505 -0.5074083045
*
