! pbe def2-sv(p) def2/J RI DEFGRID1 loosescf d4 GCP(DFT/SV(P)) printgap
%output
    printlevel normal
end
* xyz 0 1
C 3.3364278643 -3.8135177464 0.486028048
C 2.942745169 -3.3733833587 -0.9147834261
O 2.8504767257 -1.9368080212 -0.9966744391
C 1.7341382926 -1.3569756052 -0.6158444402
O 0.7463699778 -1.9533166516 -0.2376139747
C 1.8408901803 0.1487830343 -0.6762241001
C 0.6596143922 0.84450928 -1.3764317399
H 0.9347301293 1.1145222396 -2.3983653444
C 0.2717198694 2.1024058902 -0.6110513373
O -0.8409804201 2.2812068 -0.1655137032
O 1.277227239 2.92887362 -0.5036240042
C 1.1055673678 4.1138402896 0.3048886274
C 1.4671363982 3.8187110445 1.7514202362
S -0.8639226594 -0.1316187393 -1.5982129373
P -1.4690437724 -0.3798409496 0.4293315069
S -0.3581555429 0.1198979706 1.9594812697
O -2.9557255883 0.2336633019 0.4666567367
C -3.3396653512 1.5357892595 0.8989393716
O -1.8696683142 -1.9112965669 0.5344173399
C -2.6792263098 -2.5832577323 -0.4414480702
H 2.563821326 -3.5294534545 1.1980653875
H 3.4520240151 -4.8921238523 0.5050896506
H 4.2729976722 -3.3462002059 0.7773238302
H 1.9770845338 -3.8016318074 -1.1976005248
H 3.7070796567 -3.6356795488 -1.6459617606
H 2.7767893408 0.4193194304 -1.1614823778
H 1.8754294878 0.4701233736 0.3705300743
H 1.7819382834 4.8451324042 -0.136881431
H 0.0681198794 4.4471959078 0.2214386387
H 1.323398183 4.7127398634 2.3485672158
H 0.8325582398 3.0253979029 2.1448124342
H 2.5034847479 3.5016720383 1.8239219944
H -3.2992930991 2.2292572662 0.0612137534
H -2.6738371533 1.8819362263 1.6902217434
H -4.3559733918 1.4329671192 1.2731908099
H -2.7849447465 -3.5989532141 -0.0689318047
H -2.1728729405 -2.5805080927 -1.4071568547
H -3.6496243462 -2.0956166461 -0.5245565478
*
