! pbe def2-sv(p) def2/J RI DEFGRID1 loosescf d4 GCP(DFT/SV(P)) printgap
%output
    printlevel normal
end
* xyz 0 1
C 1.5617791109 -2.2070173748 -2.0167895055
C 2.1283694042 -0.8363475843 -2.3216512706
O 1.7438935759 0.1582077188 -1.338861489
P 2.0805423187 0.0897942242 0.1983405453
S 2.1784953148 1.8361196171 1.0800861546
O 3.4592664689 -0.7035141844 0.1826016064
C 4.2131295803 -0.8967067194 1.3958981061
C 5.6248000702 -1.2895936608 1.0100848663
S 0.7727660162 -1.3060389617 1.1459415301
C -0.2703369982 -0.193058126 2.132254584
S -2.0326739513 -0.4178272515 1.799158699
P -2.0853427674 0.2475371986 -0.2063500578
S -0.9400596326 1.7956169589 -0.6233847617
O -3.6269331042 0.4583519292 -0.5218277091
C -4.2904129486 1.7136871388 -0.2944997924
C -4.4533082863 2.0126038 1.1813588863
O -1.778372777 -1.1050831641 -0.9754870853
C -2.3560335846 -1.4579156691 -2.2543018959
C -1.9482466989 -0.4937370962 -3.3486064731
H 1.764548458 -2.8691254967 -2.8527351548
H 2.0211074267 -2.6151369052 -1.1182842866
H 0.4885299361 -2.1453493839 -1.8558644092
H 1.7282552083 -0.4273754159 -3.2515159428
H 3.2183882649 -0.8627996234 -2.3691439445
H 4.1970589198 0.0373208384 1.9673849786
H 3.7230549964 -1.6816156323 1.978228581
H 6.2063168998 -1.4509725152 1.9116411255
H 5.6106868128 -2.2027678421 0.4224263617
H 6.0851523376 -0.4988600501 0.4242788009
H 0.0301818017 0.8374521789 1.9197026053
H -0.1322568548 -0.4303229641 3.1840532412
H -3.7125165855 2.5038442563 -0.7850379993
H -5.2544578005 1.5929810585 -0.7905044971
H -5.0750062927 2.8938209458 1.3027066094
H -4.9146300456 1.1696401056 1.6892722742
H -3.4804229051 2.2034970543 1.6320663741
H -1.9749503008 -2.4640658486 -2.4377662009
H -3.4413951365 -1.4870960052 -2.1431972255
H -2.3383498543 0.5008786449 -3.1343378809
H -0.864762992 -0.4261620428 -3.4121376505
H -2.3445803666 -0.8350985229 -4.2996541341
*
