! pbe def2-sv(p) def2/J RI DEFGRID1 loosescf d4 GCP(DFT/SV(P)) printgap
%output
    printlevel normal
end
* xyz 0 1
C 5.6526465635 0.1132769283 -0.0101870059
C 4.4524574337 0.3801067712 -0.8948431811
O 3.3776159788 0.9969329379 -0.1425402816
P 2.2125631065 0.1954954421 0.553489996
S 1.0014323891 1.4144197782 1.4880192981
O 2.9806819375 -0.8524021505 1.4663115007
C 2.314970184 -1.6510633902 2.4622863867
C 1.8507168889 -2.9762652418 1.8899895292
S 1.351546009 -0.9857146842 -1.0028573948
C 0.3616320846 0.3465087217 -1.7505526138
S -1.2560920999 -0.2309371878 -2.336676228
P -2.4002698545 -0.0479919147 -0.5772573841
S -4.3127859218 -0.3604641405 -0.8646684861
O -2.0484180227 1.3656883393 0.0742001776
C -2.8248249286 2.5407955224 -0.1980191161
C -2.5286348297 3.1019687592 -1.5743792671
O -1.5845409645 -1.0417425368 0.3519921875
C -1.6756757397 -1.0810234018 1.7934097244
C -3.0928009862 -1.2611511653 2.2919888582
H 5.4050490956 -0.6169181177 0.7550373859
H 6.4642124646 -0.2693324306 -0.6213405764
H 5.9710786706 1.033058386 0.472890638
H 4.0809013656 -0.5429088749 -1.3487637502
H 4.6879011561 1.109246454 -1.6721157443
H 3.0684782985 -1.8002618511 3.2378774873
H 1.4792708421 -1.0758926056 2.8742886942
H 1.0984200301 -2.8225620821 1.1190400131
H 2.6902404162 -3.5073272901 1.45021945
H 1.4267144557 -3.5787074873 2.6873001258
H 0.8760887271 0.7201435495 -2.6318087259
H 0.2184935753 1.1283999817 -1.0015366248
H -3.8855241665 2.2832084735 -0.1088541801
H -2.539466072 3.2357330296 0.5933664602
H -1.4676944152 3.3164090665 -1.6769852438
H -2.8228150077 2.3832803763 -2.3388130021
H -3.0931788295 4.0177892079 -1.7163538658
H -1.0519065102 -1.9362198741 2.0611438906
H -1.2357765772 -0.1600634129 2.1858740083
H -3.6958691843 -0.3898160396 2.0407414911
H -3.5469478715 -2.1376308024 1.8349824157
H -3.0784764596 -1.3823141018 3.3706243342
*
