  23
        -30.28826620
 C          3.9378255715       -1.0119243921        0.0097430295
 C          2.9167062394       -0.0328731494        0.5771412440
 C          1.7158131415        0.1326668584       -0.3511007707
 C          0.6966133756        1.1241537292        0.2065299103
 C         -0.5280823080        1.2552783241       -0.6945188032
 O         -1.2390234093        0.0137304408       -0.7958983851
 C         -2.1562661333       -0.2672884164        0.1229129347
 O         -2.4488093826        0.4839840579        1.0309106972
 C         -2.7734969349       -1.6139223769       -0.1084373511
 H          3.4878348381       -1.9917721761       -0.1324826620
 H          4.3068398393       -0.6619804378       -0.9514687199
 H          4.7829297508       -1.1164413929        0.6854307558
 H          3.3904532215        0.9393227630        0.7287944974
 H          2.5738852764       -0.3886305303        1.5513981087
 H          2.0589958947        0.4826332794       -1.3268358076
 H          1.2326049162       -0.8358048491       -0.4969557426
 H          1.1510840188        2.1104499807        0.3056341945
 H          0.3676696748        0.8038696011        1.1981715800
 H         -0.2394416003        1.4954675308       -1.7184216804
 H         -1.2092979359        2.0161680238       -0.3011588477
 H         -2.5397451115       -1.9616747077       -1.1087236635
 H         -3.8467460957       -1.5507534346        0.0447787725
 H         -2.3690794777       -2.3090719964        0.6242469126
