  26
  -36.0476601100000       0.246670152280612      !mtd7
 C          0.0000792363       -2.5243954136       -0.0000630695
 C         -0.0000272503       -1.1911062182       -0.0000417509
 C         -1.2552246537       -0.4196603638       -0.0452367395
 C         -2.3754890464       -0.8256823241        0.6757056453
 C         -3.5514397957       -0.1005384766        0.6157786071
 C         -3.6284479804        1.0387311458       -0.1681893755
 C         -2.5200510830        1.4515223437       -0.8895128289
 C         -1.3415510252        0.7317042328       -0.8256875485
 C          1.2552003872       -0.4196387392        0.0452019658
 C          1.3414138396        0.7319058151        0.8254090650
 C          2.5199225062        1.4517161901        0.8893355777
 C          3.6284424578        1.0388026898        0.1682688980
 C          3.5515505284       -0.1006002276       -0.6155333418
 C          2.3755968851       -0.8257477327       -0.6754463458
 H          0.9142358606       -3.0899401828        0.0524239425
 H         -0.9140445754       -3.0900370325       -0.0524492148
 H         -2.3148091469       -1.7043899067        1.3004770047
 H         -4.4105086232       -0.4234046339        1.1850980390
 H         -4.5470442996        1.6040336501       -0.2146979462
 H         -2.5738961250        2.3386911824       -1.5029347603
 H         -0.4795826554        1.0542776448       -1.3920380370
 H          0.4794676717        1.0546258796        1.3916982519
 H          2.5736571796        2.3391177441        1.5024584187
 H          4.5469895381        1.6042009115        0.2147448326
 H          4.4107306154       -0.4236609972       -1.1845608673
 H          2.3151024129       -1.7045919450       -1.3000857005
  26
  -36.0476600400000       0.246651881200023      !mtd6
 C          0.0894674884       -1.9729282935       -1.5741768588
 C          0.0425123233       -0.9310689534       -0.7436451266
 C         -1.2371222393       -0.3113308673       -0.3546760076
 C         -1.4432181902        0.1014931386        0.9603828942
 C         -2.6465425840        0.6662075144        1.3398780515
 C         -3.6600090713        0.8364673104        0.4107442667
 C         -3.4631743381        0.4356770982       -0.9003606739
 C         -2.2625366428       -0.1357166457       -1.2804295584
 C          1.2673972601       -0.3448550628       -0.1702474791
 C          1.3916378085        1.0381425800       -0.0512402819
 C          2.5433512427        1.5987270137        0.4686254762
 C          3.5856874786        0.7874690069        0.8867106852
 C          3.4699485077       -0.5885042139        0.7787014680
 C          2.3214116859       -1.1509426832        0.2524325341
 H          1.0235241368       -2.4152915094       -1.8744090139
 H         -0.8049154322       -2.4145233062       -1.9783699121
 H         -0.6554676604       -0.0328372588        1.6878769355
 H         -2.7942540287        0.9762460076        2.3637690310
 H         -4.5977126019        1.2821057196        0.7068530102
 H         -4.2472730599        0.5721415010       -1.6303742376
 H         -2.1073334288       -0.4322846801       -2.3071339382
 H          0.5814172675        1.6734338588       -0.3794671378
 H          2.6278026341        2.6722938635        0.5497557761
 H          4.4826953623        1.2257420923        1.2976203043
 H          4.2768529712       -1.2259493052        1.1088626511
 H          2.2288362058       -2.2247226983        0.1845111541
  26
  -36.0476599900000       0.246638831258619      !mtd7
 C         -0.0009499757       -2.5255035321        0.0026613637
 C          0.0000049961       -1.1922468397       -0.0001016226
 C         -1.2458433428       -0.4200423667       -0.1563692005
 C         -1.4535311616        0.7329232079        0.5984707497
 C         -2.6267618293        1.4533578564        0.4739235980
 C         -3.6075855043        1.0396093974       -0.4126820094
 C         -3.4084774269       -0.1011550108       -1.1725744361
 C         -2.2383148034       -0.8268996095       -1.0446154672
 C          1.2464919132       -0.4207243979        0.1546007358
 C          2.2354830944       -0.8236421868        1.0484956491
 C          3.4049590638       -0.0970634418        1.1781584351
 C          3.6070741115        1.0403008996        0.4138967927
 C          2.6301943131        1.4494487626       -0.4792519281
 C          1.4575048338        0.7284056401       -0.6051820759
 H          0.9095364232       -3.0915802145        0.0968044989
 H         -0.9121817574       -3.0906011500       -0.0902686474
 H         -0.6917614224        1.0560841472        1.2935265950
 H         -2.7763529223        2.3416165426        1.0696524747
 H         -4.5216066987        1.6053535991       -0.5128325700
 H         -4.1669240653       -0.4246274744       -1.8700562674
 H         -2.0802659030       -1.7066957349       -1.6505156380
 H          2.0749141643       -1.7005541652        1.6578828469
 H          4.1603133140       -0.4171786257        1.8805025688
 H          4.5202039648        1.6071730691        0.5158979614
 H          2.7823490194        2.3347669461       -1.0787116746
 H          0.6988171398        1.0480795580       -1.3050965026
  26
  -36.0476599600000       0.246631001624083      !mtd7
 C         -0.0897198474       -1.9737680007        1.5738898611
 C         -0.0423414257       -0.9323623906        0.7427719983
 C         -1.2670542617       -0.3455352800        0.1696197116
 C         -2.3222448130       -1.1509325494       -0.2515551717
 C         -3.4708091142       -0.5877508850       -0.7768859130
 C         -3.5853801356        0.7883047053       -0.8856296673
 C         -2.5418155730        1.5988162480       -0.4693181656
 C         -1.3900977244        1.0374743447        0.0497494809
 C          1.2373232309       -0.3125666819        0.3539737028
 C          2.2619974314       -0.1356434977        1.2803439555
 C          3.4620019250        0.4374864725        0.9009970932
 C          3.6590677202        0.8385063139       -0.4100291005
 C          2.6465925313        0.6664263303       -1.3398667372
 C          1.4438029396        0.1000664801       -0.9610544216
 H          0.8044621001       -2.4155858675        1.9783220526
 H         -1.0239824986       -2.4154933523        1.8744389397
 H         -2.2304916790       -2.2247359167       -0.1831783976
 H         -4.2787355711       -1.2245649281       -1.1056513891
 H         -4.4825677132        1.2271653000       -1.2954933518
 H         -2.6253567596        2.6724141146       -0.5509295978
 H         -0.5788728786        1.6722734165        0.3764408723
 H          2.1065360343       -0.4325100944        2.3069282090
 H          4.2455886435        0.5749563691        1.6313934485
 H          4.5962512353        1.2857121138       -0.7053827890
 H          2.7945347806        0.9762435861       -2.3637645305
 H          0.6568696963       -0.0357626777       -1.6891147280
  26
  -36.0442623100000       6.770111766697929E-003 !mtd5
 C         -0.0693472654       -2.5251345018       -0.0278121258
 C          0.0139167903       -1.1956385858       -0.0083213973
 C         -1.2442512394       -0.4108426360       -0.1222654045
 C         -1.9998059592       -0.1289879312        1.0093537948
 C         -3.1813061753        0.5836598780        0.9016929585
 C         -3.6197240593        1.0194447893       -0.3375172621
 C         -2.8723590143        0.7399363508       -1.4697132323
 C         -1.6902751796        0.0286284843       -1.3634171451
 C          1.2643323162       -0.4334731223        0.1169352292
 C          2.5022896282       -1.0574718716        0.2830970590
 C          3.6619108677       -0.3157720044        0.3987990666
 C          3.6168310015        1.0681772477        0.3522617810
 C          2.3969611010        1.7028850386        0.1914917749
 C          1.2355445230        0.9622777323        0.0768897084
 H          0.7857874725       -3.1728880704        0.0426852935
 H         -1.0253100358       -3.0118791963       -0.1225511522
 H         -1.6548235338       -0.4702081776        1.9746444724
 H         -3.7613477455        0.7983823887        1.7869735870
 H         -4.5419446706        1.5746419035       -0.4210506139
 H         -3.2112635744        1.0766547008       -2.4382388002
 H         -1.1041923678       -0.1899375301       -2.2444785541
 H          2.5649914333       -2.1330691054        0.3258779292
 H          4.6082159034       -0.8202580709        0.5270933681
 H          4.5243586519        1.6457319032        0.4420800027
 H          2.3485463452        2.7812106435        0.1556404535
 H          0.2915977425        1.4724857699       -0.0462510290
  26
  -36.0442436900000       6.638021869965551E-003 !gc
 C          0.0685707644       -2.5234399451        0.0267330344
 C         -0.0124193877       -1.1938275891        0.0081201958
 C         -1.2691073927       -0.4310614905        0.0149855587
 C         -2.5131147881       -1.0515973340       -0.1145976297
 C         -3.6803943431       -0.3129215931       -0.1006185112
 C         -3.6368785570        1.0646030442        0.0405708524
 C         -2.4109209655        1.6965057713        0.1606149665
 C         -1.2419040695        0.9590839359        0.1449733711
 C          1.2518499925       -0.4112432592       -0.0125734539
 C          1.9091714669       -0.1714856637       -1.2127501250
 C          3.0954409785        0.5413959823       -1.2302449385
 C          3.6362192922        1.0202631856       -0.0488298345
 C          2.9876915289        0.7819859644        1.1517307200
 C          1.8017853593        0.0695818957        1.1706213848
 H          1.0274997459       -3.0134906769        0.0207996613
 H         -0.7916026072       -3.1676611871        0.0588122441
 H         -2.5740294317       -2.1214845438       -0.2347472365
 H         -4.6314463116       -0.8145946800       -0.2019398639
 H         -4.5502409517        1.6398082893        0.0527771530
 H         -2.3634532629        2.7703593153        0.2654145419
 H         -0.2937357039        1.4678252912        0.2369227657
 H          1.4844209775       -0.5458803621       -2.1328904947
 H          3.5988089072        0.7230619086       -2.1682070127
 H          4.5612411393        1.5768873423       -0.0629463081
 H          3.4066365800        1.1519799261        2.0757819012
 H          1.2928575260       -0.1177791005        2.1052904302
