! pbe def2-sv(p) def2/J RI DEFGRID1 loosescf d4 GCP(DFT/SV(P)) printgap
%output
    printlevel normal
end
* xyz 0 1
C 3.3557218787 2.0808535244 -1.6551300144
C 4.0278924397 1.6571992653 -0.364841036
O 3.6976997775 0.3035474406 -0.0155921276
P 2.2672102041 -0.0998869291 0.5487402356
S 1.5266112583 1.2029293722 1.8184683661
O 2.5148633247 -1.5565404756 1.1168844244
C 2.8514503968 -1.7834126023 2.5030314163
C 4.243291702 -1.2859894477 2.8297443567
S 1.1813057789 -0.6094923568 -1.2048861503
C -0.0611710913 -1.7045195579 -0.460360056
S -1.2146783242 -0.8515617253 0.6345371465
P -2.3862394203 0.0471592803 -0.9104097703
S -2.5729421459 -1.0194308111 -2.5411383931
O -1.7426347468 1.4298639269 -1.2987903669
C -1.1687622027 2.4413548582 -0.4387705957
C -2.0272676289 2.7960293081 0.7546185278
O -3.7203760332 0.47666164 -0.1682638779
C -4.5053539903 -0.3648521971 0.6962034138
C -4.9110105699 -1.6684671263 0.0410348608
H 3.6102705568 1.3933998739 -2.457719938
H 2.27284225 2.0783546314 -1.5298032938
H 3.6782165223 3.082466877 -1.9205478923
H 3.728445471 2.3122889156 0.4605758138
H 5.1143820574 1.6511676465 -0.4600836913
H 2.1040331393 -1.2835170739 3.1275796974
H 2.770172252 -2.8650094129 2.6185611331
H 4.4962552034 -1.5678138214 3.8470377527
H 4.9671634352 -1.7162129951 2.142654245
H 4.2782523299 -0.2007382186 2.744005889
H 0.4337170305 -2.4766243898 0.1220213629
H -0.6183754049 -2.1291559 -1.298802599
H -0.1880625382 2.0872657325 -0.1069477875
H -1.0401421978 3.2922818938 -1.1095348401
H -3.0291837683 3.0696231309 0.4349652054
H -2.0849056922 1.9556235019 1.4439065877
H -1.5683737938 3.6328568634 1.2727022397
H -3.9275634654 -0.5526999581 1.6057389624
H -5.3754634943 0.2507021749 0.9310844733
H -5.4231245294 -1.4769463872 -0.898937069
H -4.0313673171 -2.2760857312 -0.1665375387
H -5.5711536133 -2.2157142083 0.7062625399
*
