! pbe def2-sv(p) def2/J RI DEFGRID1 loosescf d4 GCP(DFT/SV(P)) printgap
%output
    printlevel normal
end
* xyz 0 1
C 5.411526369 -1.8598237143 -1.2656254194
C 4.5743182599 -0.5907259877 -1.2780640284
O 3.1673644592 -0.8995603398 -1.2770529654
C 2.5692649797 -1.0896880339 -0.1163855534
O 3.1169673611 -1.0245537219 0.9595173942
C 1.0954786394 -1.4106790525 -0.3006615842
C 0.4064030448 -0.3238887284 -1.1284535132
H 0.891720896 -0.2389649769 -2.1043151192
C 0.458097154 1.0113984902 -0.4159033527
O -0.5450686042 1.6061390022 -0.0729211098
O 1.6812497341 1.4203166679 -0.2255280663
C 1.8958180404 2.5923653648 0.5936984312
C 1.9234029278 2.203567041 2.0623885439
S -1.3325574551 -0.715920698 -1.474869647
P -2.3014093177 -0.1672337188 0.3547213943
S -1.3973787438 -0.1705596669 2.0955023506
O -3.3003913864 1.0379901313 0.0292618996
C -3.1310328881 2.4254122666 0.3124403648
O -3.3701344564 -1.3493690861 0.4216826713
C -4.3024676249 -1.6437121202 -0.6313271155
H 5.2448593336 -2.4082352906 -0.3412509943
H 5.1444916804 -2.4934725969 -2.1067831779
H 6.4620675774 -1.5975181582 -1.3342300368
H 4.7275600745 -0.0221585786 -2.1952664692
H 4.7947755269 0.0268903952 -0.4032246076
H 0.6353689338 -1.5007779583 0.6861921754
H 1.0070760758 -2.3614101394 -0.8285335463
H 2.8592020589 2.9790506153 0.2623600492
H 1.099201759 3.3123934302 0.3907673327
H 0.9539268598 1.8153259489 2.371685396
H 2.6670860879 1.4277692798 2.2298481541
H 2.1652417815 3.0730413821 2.6638279787
H -4.1370745392 2.8219928738 0.4329061669
H -2.6189294802 2.9100798385 -0.5165604981
H -2.555211317 2.5582194709 1.2281125328
H -4.8413179745 -2.5256052705 -0.2942715871
H -3.7663333656 -1.851495089 -1.5577024117
H -4.9820551013 -0.8052453286 -0.7717054638
*
