  9
         -9.44269513
 C          1.2480190973       -0.1792631439        0.0000040866
 C         -0.1064654827        0.4456322316       -0.0000112961
 C         -1.2431321217       -0.2252401436        0.0000051961
 H          1.8066176892        0.1397350338        0.8788989329
 H          1.8065786694        0.1396136431       -0.8789654042
 H          1.1764639740       -1.2637452513        0.0000748227
 H         -0.1163128939        1.5283464730        0.0000279043
 H         -2.1996082182        0.2688940195        0.0000134747
 H         -1.2633182487       -1.3029410646       -0.0000257394
