! wb97x-v def2-tzvp def2/J RIJCOSX DEFGRID2 scfconv7 GCP(DFT/TZ) printgap
%output
    printlevel normal
end
%cpcm
    smd true
    smdsolvent "water"
end
* xyz 0 1
C 1.4496662524836037 -0.7327235457113123 -0.23774948167664328
C 1.449820729431595 0.73251363427054 0.2375831273950228
C 0.045479629715320866 1.2249098856080385 -0.12634807237683943
C -0.8329210509910293 2.6931787661913107e-05 -0.0004741464241295402
O -2.05629965516295 0.0001585161986832493 -1.167744624616106e-05
C 0.04531106628851063 -1.224856812895544 0.12651606725833214
H 2.2422755611458793 -1.3270521401117785 0.22251573825775733
H 1.5845167026230393 -0.7691381481701414 -1.3246701966974017
H 1.584786325648231 0.7688178108277164 1.3244983836266577
H 2.2424827493304504 1.326766160541893 -0.2226973061208131
H -0.3412493563471143 2.058222780829824 0.4661770602497762
H 0.0014267350031882532 1.5248925641513007 -1.1838928948763041
H 0.0013879469878020335 -1.5244936981285604 1.1841974126025385
H -0.3416484112261843 -2.0583126123618345 -0.4656653881038478
*
