! pbe def2-sv(p) def2/J RI DEFGRID1 loosescf d4 GCP(DFT/SV(P)) printgap
%output
    printlevel normal
end
* xyz 0 1
C 4.1278338269 -2.4742101421 1.3363027543
C 2.7604096552 -1.8219114035 1.3798424174
O 2.4509788172 -1.3444888831 0.0567862883
C 1.5218083212 -0.4387690199 -0.0846374844
O 0.9295945946 0.1063088798 0.835201212
C 1.2928162024 -0.0610081166 -1.5307416416
C 0.2204272962 1.014594127 -1.6106948217
H 0.2580354877 1.5192506467 -2.5802188758
C 0.3894866904 2.0656050253 -0.5201179777
O -0.5265747518 2.5308848081 0.1195304887
O 1.6383113727 2.4756708075 -0.4481036223
C 1.9473272255 3.4838914364 0.5358569654
C 3.3685663457 3.9537162745 0.2985095413
S -1.4883730142 0.3808033165 -1.5618846472
P -1.6892449447 -0.9209703281 0.1045649346
S -0.5983919559 -2.547021952 0.1686080457
O -1.7431249074 -0.1515938927 1.4802917586
C -2.6601842888 0.922666538 1.7663650501
O -3.2438416638 -1.2613102247 -0.0879671548
C -3.7001293031 -2.0977510539 -1.1568102533
H 4.366295768 -2.8677147129 2.3186294855
H 4.1224861702 -3.2859733096 0.6157068009
H 4.8816611266 -1.7482662634 1.046487827
H 2.7244451061 -0.9752408031 2.0728914798
H 1.9786719935 -2.5355326434 1.6606736111
H 1.011343577 -0.9515475842 -2.0954149104
H 2.2349334203 0.3158933329 -1.9327026749
H 1.2228026353 4.2976970982 0.4327778774
H 1.8221608467 3.0335075201 1.5260266368
H 3.6171088203 4.7165657949 1.0286796258
H 4.0594159419 3.1223232451 0.4003427718
H 3.46137337 4.3689742555 -0.7004434272
H -2.6541417795 1.013851173 2.8493363427
H -3.6551383919 0.6754729534 1.4020661575
H -2.2941819299 1.8387346873 1.3034245005
H -3.0556457274 -2.9737983567 -1.2459020779
H -3.7000655067 -1.5367518359 -2.0903511811
H -4.7096623026 -2.3950871427 -0.8845356625
*
