! pbe def2-sv(p) def2/J RI DEFGRID1 loosescf d4 GCP(DFT/SV(P)) printgap
%output
    printlevel normal
end
* xyz 0 1
C 2.0357332268 -3.2609251591 -2.8137581068
C 3.0484322545 -3.0555313715 -1.6982739709
O 2.8666559578 -1.7627136455 -1.0890131521
C 2.0483600091 -1.6607216385 -0.0626844296
O 1.4841618241 -2.5902710118 0.4700648792
C 1.8654720378 -0.2122473385 0.3532302771
C 0.9916245807 0.4819166376 -0.6927200523
H 1.5501960069 0.5986110448 -1.6265402979
C 0.4945703317 1.8487628727 -0.2527092029
O -0.6311872234 2.2412521285 -0.4896945296
O 1.4159814838 2.5340263848 0.3619986052
C 1.0566215403 3.8406956078 0.8611006288
C 2.2951589516 4.4615216127 1.4736020546
S -0.4663729458 -0.5094877814 -1.1657706991
P -1.7785615428 -0.0632199726 0.4446272498
S -1.0724140902 0.6308073144 2.1335522163
O -2.987493915 0.787108214 -0.1060118371
C -3.6806820487 0.4656107118 -1.3274798403
O -2.5033995548 -1.4865511724 0.6173159618
C -1.8444554414 -2.5784518965 1.2661271681
H 2.1960909858 -4.2315055414 -3.2709956062
H 1.0249386561 -3.2177697399 -2.413785862
H 2.1440489348 -2.4863417262 -3.5673849323
H 4.0684767331 -3.0412739667 -2.0823560861
H 2.9410838812 -3.82321445 -0.9270476154
H 2.8303026636 0.2910637664 0.3978683877
H 1.385520568 -0.1859279515 1.3330495786
H 0.6672623112 4.4321206981 0.0270664248
H 0.2563212946 3.7085833098 1.5963104778
H 3.0774951346 4.5496102421 0.7260263452
H 2.0481021308 5.4473209398 1.8528175982
H 2.6537235689 3.8439107739 2.2911626935
H -4.4405739502 1.2358898225 -1.428902017
H -4.1320266452 -0.522007544 -1.2496975149
H -2.9852340327 0.4993532957 -2.1661051056
H -2.5364406518 -3.413829638 1.2063839528
H -1.6397362277 -2.3215239001 2.3061159257
H -0.9050708417 -2.8198826203 0.7662901732
*
