! pbe def2-sv(p) def2/J RI DEFGRID1 loosescf d4 GCP(DFT/SV(P)) printgap
%output
    printlevel normal
end
* xyz 0 1
C 5.0128933614 1.0936933953 0.4318654023
C 3.7660552435 1.5296954368 -0.307549871
O 2.9601079878 0.3994053584 -0.7056051185
P 2.1641677827 -0.4692715285 0.350511158
S 1.5700390169 0.4708063199 1.9683279113
O 3.1743143401 -1.6604832238 0.6513215886
C 2.9939346238 -2.5541634912 1.7606528312
C 1.9001768427 -3.5667066155 1.4867247193
S 0.7366683076 -1.3530765837 -0.9513626187
C 0.2220511398 0.1315701211 -1.8608624633
S -0.5604057465 1.3877890143 -0.8226664446
P -2.4107506489 0.3520852701 -0.561931767
S -3.0191855789 -0.6702833303 -2.1114952552
O -3.3998772902 1.4728821546 -0.0226586921
C -4.1710611435 2.3170309402 -0.8988810659
C -3.3015304068 3.2482364139 -1.7180032466
O -2.2238175393 -0.5596734164 0.7095846694
C -2.0277581077 -0.0332822793 2.0474579013
C -1.6723229604 -1.1974470619 2.9462416607
H 5.5652907765 0.3677606674 -0.1588627576
H 5.6394308814 1.9593959771 0.6222508381
H 4.7390422397 0.6385963051 1.3827268312
H 4.0051981387 2.0255965166 -1.2491364475
H 3.1544186922 2.1893910367 0.3163677413
H 3.9656362752 -3.0352427369 1.8794942
H 2.760970328 -1.9603470978 2.6516598211
H 1.8208604272 -4.2518632488 2.3246024543
H 0.9452719569 -3.058163885 1.3509720596
H 2.1204078663 -4.1250298651 0.5807379942
H -0.4979570418 -0.2150604281 -2.6046502064
H 1.0873881931 0.5915262373 -2.3296690218
H -4.7710024432 1.6762009312 -1.5520185189
H -4.8210706787 2.8677802804 -0.217438001
H -2.6178448892 3.794130726 -1.072396448
H -2.7221734174 2.6775576832 -2.4420684173
H -3.9342933506 3.9511418844 -2.2502528756
H -1.2228911425 0.7075358999 2.0223357187
H -2.9546986902 0.4511628289 2.3583559462
H -2.4417787148 -1.9618747732 2.8905263527
H -0.7227721113 -1.6281609515 2.6392513891
H -1.5810962472 -0.8407505561 3.9668392087
*
