! pbe def2-sv(p) def2/J RI DEFGRID1 loosescf d4 GCP(DFT/SV(P)) printgap
%output
    printlevel normal
end
* xyz 0 1
C 5.1343649465 -1.2055434526 -1.8123902314
C 4.8777087757 -0.2760235491 -0.6428252093
O 3.6167518077 -0.5996025727 -0.0129614102
P 2.3004916102 0.2316737699 -0.3023941183
S 1.910696644 0.5920062967 -2.195231846
O 2.5901475131 1.5311762 0.571715235
C 1.7697392528 2.7113525296 0.5757687276
C 0.8717632414 2.7322687892 1.7967823027
S 0.9656758794 -0.9569825778 0.7949908049
C 0.0175943731 -1.6833709113 -0.5942159643
S -1.7021292862 -1.9626795314 -0.1504186994
P -2.2406061292 0.0652211651 0.2468398306
S -1.3700326456 1.4318305451 -0.8525414248
O -1.9568419351 0.3662875294 1.7668746064
C -2.4782518036 -0.4233291819 2.8672982858
C -1.3884352272 -1.2924427233 3.4621246121
O -3.8287895285 0.002367859 0.238665352
C -4.6386556771 -0.6025009897 -0.786959213
C -4.3380741785 -0.0575721844 -2.1673582681
H 5.0978316136 -2.239104085 -1.4803496771
H 4.3795199945 -1.0551672147 -2.5814367886
H 6.1135062921 -0.9944300201 -2.2301318233
H 4.8634056004 0.7685672105 -0.9650930568
H 5.6223379863 -0.4061138304 0.1441446972
H 2.4762023733 3.5436940428 0.5911553488
H 1.1826252774 2.749849087 -0.3481941226
H 0.3539819064 3.6851396904 1.838659408
H 0.1304123132 1.9372781957 1.7392946689
H 1.4658719924 2.5993959009 2.6965479825
H 0.4314927845 -2.6568904682 -0.8448209213
H 0.0766944615 -0.995137422 -1.4426240429
H -2.8344843417 0.3150523441 3.5872350838
H -3.3173819758 -1.0235746821 2.5107783985
H -1.0493002374 -2.0339060064 2.7428262453
H -0.537156086 -0.6822225776 3.7503026174
H -1.7809363907 -1.798887125 4.3380007674
H -4.4787110293 -1.6836644311 -0.7547496439
H -5.6587201243 -0.3663227036 -0.4788891146
H -4.4362887578 1.0255547122 -2.1782633156
H -3.3196212723 -0.3110339855 -2.4593290359
H -5.0283830486 -0.4888709982 -2.8850432342
*
