! pbe def2-sv(p) def2/J RI DEFGRID1 loosescf d4 GCP(DFT/SV(P)) printgap
%output
    printlevel normal
end
* xyz 0 1
C 1.3816902738 -3.3155051563 -0.1186605584
C 2.6756211055 -2.528137626 -0.0937066042
O 2.4474635682 -1.2333581549 0.5019042444
P 2.7877218224 0.1623922348 -0.1958550597
S 3.2279427475 0.0703320512 -2.0980961015
O 3.9836060094 0.7706859068 0.6447768554
C 4.0122320036 0.7975369922 2.0950465224
C 3.581245186 2.151583402 2.6214375521
S 1.1156973977 1.3446153339 0.3273560768
C 0.0569209066 0.8865875072 -1.0704719981
S -0.929413699 -0.5979217367 -0.7880622761
P -2.8161150522 0.284592215 -0.2853107376
S -2.8747233563 2.239080279 -0.413931614
O -3.2511519163 -0.3188800909 1.121847367
C -2.8869153393 0.2772854861 2.3779023465
C -1.4532613034 -0.0316613356 2.7583016508
O -3.8525128334 -0.3957640391 -1.2603917416
C -4.4169966729 -1.7197045754 -1.0934235024
C -3.3626644911 -2.8054208558 -1.1104860624
H 0.9743675742 -3.3936938622 0.8848131126
H 0.6522913059 -2.8223124745 -0.7563164395
H 1.5815507686 -4.3094182955 -0.5052100902
H 3.0749435347 -2.3879945133 -1.1036678682
H 3.4274937823 -3.0197617973 0.5274260337
H 3.3727510747 -0.0007919844 2.4774008112
H 5.0545328395 0.5915625995 2.3448113619
H 2.5401847103 2.3468252202 2.3731398074
H 3.6978906605 2.164360651 3.7005319995
H 4.1960085862 2.9338997789 2.1849558876
H 0.6929426982 0.7061123641 -1.9383420359
H -0.6188500486 1.7276996408 -1.2398650234
H -3.0484796715 1.358112592 2.3125723786
H -3.5917031664 -0.1591855606 3.0876850843
H -0.7652747469 0.4758912696 2.0846609581
H -1.2695084001 0.3189914857 3.7686750822
H -1.2728635374 -1.102290417 2.7103286981
H -4.9789237892 -1.7343976283 -0.1577400509
H -5.1001216561 -1.8062695059 -1.9396493458
H -2.7795408094 -2.7560325711 -2.0263761727
H -2.6907592884 -2.6894467302 -0.2618533309
H -3.8492314467 -3.7737321798 -1.0475928955
*
