! pbe def2-sv(p) def2/J RI DEFGRID1 loosescf d4 GCP(DFT/SV(P)) printgap
%output
    printlevel normal
end
* xyz 0 1
C 4.2807246451 1.8957729352 -0.7492716953
C 4.4608003138 0.6109504623 0.0346438257
O 3.3482586622 -0.2796783426 -0.1254578413
P 1.9018237779 0.0413456353 0.4791363554
S 1.9552979437 0.8737856679 2.2510420785
O 1.2328679816 -1.3889519971 0.3580891564
C 1.2168541495 -2.3144486048 1.4584871954
C 2.5843682241 -2.916071646 1.703406133
S 0.8991307304 1.0898905076 -1.0644988701
C 0.4364835739 -0.2638267329 -2.1600319946
S -0.9489519671 -1.336652332 -1.5894237673
P -2.1041609715 -0.1033420417 -0.3570881693
S -3.8674101017 -0.838306497 0.0758935415
O -2.1572357938 1.3593018644 -0.9930612014
C -3.1962342328 1.7592131789 -1.903114503
C -2.9217932736 1.2700138965 -3.3110772037
O -1.1268489953 0.132743502 0.8820211018
C -1.6217954503 0.8455417073 2.0418085135
C -1.9465119673 -0.1205175383 3.1618462763
H 4.0965119916 1.6796733494 -1.7982331529
H 3.4338348388 2.4564061398 -0.3530375021
H 5.1770604588 2.5007199178 -0.6574368606
H 4.5793704495 0.8278842636 1.1014490009
H 5.3155337307 0.0355763734 -0.3237067819
H 0.8587939938 -1.7893686106 2.3501398104
H 0.4859389487 -3.0675845956 1.1578608509
H 2.5073877094 -3.6802389812 2.4704718671
H 2.969102839 -3.3578980857 0.7882091904
H 3.2732689124 -2.1428456727 2.0407948471
H 1.2780801386 -0.9377014855 -2.3011544366
H 0.1420103219 0.2025549277 -3.0968870226
H -4.1508550777 1.3688246413 -1.5339238466
H -3.1933532114 2.8485803062 -1.8473805881
H -1.9608229051 1.6419593681 -3.656372057
H -2.9181492743 0.180931823 -3.3340250028
H -3.7028672122 1.6319386519 -3.9719795828
H -0.8150724842 1.5254634579 2.3248332174
H -2.5032847008 1.4242043935 1.7531492057
H -1.0563211671 -0.6742395876 3.4488778456
H -2.3069020745 0.4401601533 4.0183016004
H -2.7148786744 -0.8218441813 2.8429324551
*
