! pbe def2-sv(p) def2/J RI DEFGRID1 loosescf d4 GCP(DFT/SV(P)) printgap
%output
    printlevel normal
end
* xyz 0 1
C 3.6885578807 -1.3165483328 1.7605735259
C 2.8557742768 -2.170557597 0.8187201794
O 2.5801033282 -1.4626911422 -0.4075041971
C 1.5872392114 -0.6187435003 -0.4411466705
O 0.8550336385 -0.3573164615 0.504518238
C 1.4027105843 0.0459050274 -1.7824611924
C 0.3428926437 1.1261470765 -1.6264765139
H 0.3049653918 1.7685451408 -2.5103640896
C 0.6060238448 1.9969876348 -0.4046432351
O -0.2618121592 2.4538379106 0.3012587003
O 1.8956895677 2.2243472496 -0.2555699656
C 2.3122205594 3.0718526448 0.8351467045
C 2.197518838 4.5411279985 0.463909061
S -1.3633541098 0.4649580369 -1.5565984585
P -1.593623037 -0.9149258065 0.0261183204
S -0.8104884764 -2.712061848 0.0506430242
O -1.6147132232 -0.256022225 1.4804493331
C -2.4488569478 0.8630930041 1.8200948007
O -3.1642920515 -0.9957688826 -0.3725824071
C -4.0006078502 -2.1009583493 -0.0270049237
H 3.9412397492 -1.899059547 2.6401500648
H 4.6012104786 -0.9961262799 1.265919489
H 3.1217037085 -0.4408555514 2.0699903983
H 1.9049065894 -2.4555304593 1.2781370333
H 3.3965491496 -3.0597493757 0.4962396415
H 1.0956491482 -0.7014892938 -2.5163577733
H 2.3542722936 0.4738203237 -2.1001256057
H 1.6971944052 2.8392220436 1.709277098
H 3.3488509356 2.7857547326 1.0144087126
H 2.5812593764 5.1450627216 1.2794323836
H 2.771681296 4.7453652868 -0.4353940205
H 1.1566619572 4.8036889911 0.2898084172
H -3.3919987103 0.8182316326 1.2749013404
H -1.9245767536 1.7865807462 1.5779033484
H -2.6159065781 0.7831636159 2.891483933
H -3.4395345443 -3.0353095628 -0.0974894441
H -4.8137300668 -2.0932230432 -0.7488376754
H -4.3846090653 -1.9813250456 0.986487828
*
