! r2scan-3c def2/J RI DEFGRID2 scfconv6 printgap
%output
    printlevel normal
end
%cpcm
    smd true
    smdsolvent "water"
end
* xyz 0 1
C 3.6177025836 -3.9693263849 -0.672279688
C 4.2675082157 -2.6664984884 -1.1101733113
O 3.3322866822 -1.8528733954 -1.847326614
C 2.5282247505 -1.0589854229 -1.1773068641
O 2.531519523 -0.9264598842 0.0297202694
C 1.5965614084 -0.292634439 -2.092875886
C 0.4889931212 0.3441854868 -1.2643212023
H -0.0989138598 1.0384380287 -1.873341449
C 1.1020532565 1.1354981784 -0.1184485317
O 2.0088061479 1.9166205231 -0.2942237078
O 0.5021295455 0.9159079012 1.0332006047
C 0.99045653 1.6141218799 2.1968952658
C 0.3268930544 2.9720929621 2.3448057524
S -0.6490339613 -0.9484671261 -0.6482226644
P -2.0704017622 0.3318099143 0.2226674682
S -2.1853903326 2.2054045838 -0.3246277091
O -3.3412852295 -0.5537759083 -0.2243060449
C -4.6713558284 -0.0762278651 0.0149995798
O -2.0321176561 0.1992474987 1.814793644
C -1.8617610783 -1.081497983 2.4450312456
H 2.7977691465 -3.7651486481 0.0126302827
H 3.2316747847 -4.5029608066 -1.536103485
H 4.3544014188 -4.5862011742 -0.1684796387
H 5.0845323208 -2.8424438354 -1.80972615
H 4.6201797903 -2.096869821 -0.2457673128
H 1.1935283435 -0.9597367102 -2.8534510383
H 2.1787613143 0.4927944594 -2.5803602932
H 0.74371061 0.9577443208 3.0316067834
H 2.074534738 1.7128769148 2.0939371146
H 0.5784836692 3.6079062141 1.4986820974
H -0.7539478067 2.8580153002 2.38257828
H 0.67259039 3.4418706123 3.2593246195
H -5.328032673 -0.7810414056 -0.4882516898
H -4.7899533663 0.9240866749 -0.4047682798
H -4.8813772852 -0.0483219419 1.0846347916
H -2.4914139982 -1.8317406096 1.9658875136
H -2.1542155071 -0.9355652554 3.4818425353
H -0.8168178902 -1.3835011054 2.3773870858
*
