! pbe def2-sv(p) def2/J RI DEFGRID1 loosescf d4 GCP(DFT/SV(P)) printgap
%output
    printlevel normal
end
* xyz 0 1
C -8.996e-07 -2.1184271019 5.6104e-06
C 1.2044062174 -1.4349754017 3.85624e-05
C 1.1892519536 -0.0502040988 0.0001885513
C 4.3197e-06 0.6601824129 0.0001342795
C -1.1892477513 -0.0501995361 -9.2607e-06
C -1.2044083202 -1.4349701242 -0.0001217304
Cl -2.6877906407 0.8267730588 -1.26023e-05
Cl 2.6877887795 0.8267740861 -5.59444e-05
H -1.5893e-06 -3.1961229515 0.0001674516
H 2.1419597741 -1.9655048916 -0.0004086922
H 7.5286e-06 1.7374870844 -0.0002211499
H -2.1419660187 -1.9654940757 6.10739e-05
*
