! wb97x-v def2-tzvp def2/J RIJCOSX DEFGRID2 scfconv7 GCP(DFT/TZ) printgap
%output
    printlevel normal
end
%cpcm
    smd true
    smdsolvent "water"
end
* xyz 0 1
C 4.3697869145398505 -1.1393123470861635 -2.709838329157263
C 4.493216551160295 -1.6156002564267944 -1.2842273096879975
O 3.1818342313938515 -1.7648121455906047 -0.6366362132818003
P 2.3350392727306946 -0.5202349359361382 -0.06378004423780706
S 3.3485846167399225 1.0317615711763102 0.5376279853777481
O 1.413210915151947 -1.2546717130434315 1.0253476810880342
C 2.0073555991796725 -1.7281390587703547 2.2913853090813565
C 1.3324770833982857 -1.028928625134342 3.4425031095668186
S 0.9385064046613555 -0.19151583351667886 -1.6220076468579485
C 0.294362008353413 1.4678218687945903 -1.178376833948637
S -0.8164549627159089 1.5686208312029986 0.27801417458630795
P -2.5227861161837235 0.5198108978716934 -0.4432148899613026
S -2.9366225153712375 0.7877653825280787 -2.32248673004998
O -3.6099672559000555 0.9583253138031161 0.6587861391299542
C -4.243293354035232 2.2848189381059414 0.6144010586236087
C -5.235372093711833 2.34008664971479 1.7460080505577644
O -2.3389512482803148 -1.0345396765044663 -0.10067491949901375
C -2.0837769547539002 -1.4956079756184821 1.2765568174598243
C -1.5972428805237517 -2.9180762565955596 1.188722868645042
H 5.362579091588804 -1.1643346859509893 -3.171090845250528
H 3.7065111776608504 -1.7912690126250368 -3.285696113442045
H 3.9964832417767617 -0.1126820159379979 -2.7618034702177328
H 5.100214650698766 -0.9385232552213975 -0.6761648487117532
H 4.917367479845584 -2.6202563851941045 -1.2313052184037694
H 1.8345777506221908 -2.807394441917982 2.305621816195641
H 3.0861709961256705 -1.5429804451760014 2.2832471946276898
H 0.2551730366530465 -1.2184914289784137 3.4386207502105535
H 1.745322773946522 -1.411185042091594 4.381779642823305
H 1.5060095472865236 0.05025853732539694 3.400527577441616
H -0.23716718665387462 1.8228963171499715 -2.0659756171789114
H 1.1317067679972317 2.137788511984894 -0.9609000192553314
H -3.4630245775113466 3.0453923802979515 0.7209768049202773
H -4.727758925252419 2.3968916554779782 -0.36023226818876497
H -6.005395458706775 1.5725317925022126 1.6284916878129314
H -4.737792330904318 2.2049372831774696 2.7103546552718076
H -5.720853367710737 3.320656988006132 1.7420259610816626
H -1.3352456277629103 -0.8382843533191349 1.7299742820142359
H -3.0218380029720326 -1.4162110179310607 1.832814327260865
H -0.6793794390294154 -2.9831852631223126 0.5981776687606662
H -1.3873131448413873 -3.283633093645679 2.1988900780875515
H -2.3576943604484812 -3.563930360024674 0.7404866736021783
*
