! pbe def2-sv(p) def2/J RI DEFGRID1 loosescf d4 GCP(DFT/SV(P)) printgap
%output
    printlevel normal
end
* xyz 0 1
C 4.6056758613 1.1193326708 -1.326469193
C 4.6143802608 1.1506538789 0.1883786353
O 3.7833696684 0.1275143077 0.7623382223
P 2.2014672348 0.1239148037 0.6203722558
S 1.3626269331 1.884826671 0.7646057996
O 1.7438900319 -0.8180155108 1.7965580692
C 1.8502868824 -2.2609566665 1.8535301811
C 3.2608234621 -2.7556388197 1.6202774802
S 1.8301432136 -0.9392251226 -1.1997031716
C 0.1317049714 -0.3934543476 -1.3986460075
S -0.9435441345 -1.1815671232 -0.1455088626
P -2.6261114069 0.0047716584 -0.5543682696
S -3.2077075255 0.1332811352 -2.4127193629
O -2.1686193025 1.3768987919 0.1313017137
C -2.5545622422 2.6736279355 -0.3694722425
C -1.5131483974 3.2227348968 -1.3231121972
O -3.7769145605 -0.5821559166 0.362894059
C -3.6365109098 -0.7617986237 1.7954002482
C -3.3660926874 -2.2166057276 2.1219322543
H 4.8335068151 0.1194912783 -1.6867454043
H 3.6266379376 1.4132642412 -1.7012540897
H 5.3479354128 1.8160884343 -1.7025639841
H 4.2700727771 2.1230942182 0.5547780843
H 5.6055238694 0.9341101611 0.589354467
H 1.5006363921 -2.4941586911 2.8601606744
H 1.1568295314 -2.6789572453 1.1175512633
H 3.5746554412 -2.5358894073 0.6017693611
H 3.947623122 -2.2746197712 2.311747738
H 3.2880914027 -3.8299227396 1.7743372267
H -0.2008701564 -0.6855390361 -2.3928969874
H 0.0856147771 0.6887752662 -1.2595976611
H -3.5281555491 2.5912211819 -0.8615209479
H -2.6379975177 3.2934892419 0.5243165947
H -0.5371492876 3.2330643471 -0.8423595001
H -1.4685745384 2.611134991 -2.2225567614
H -1.7839494124 4.236166256 -1.6002500187
H -2.8358134449 -0.1129087482 2.1601086048
H -4.5926344904 -0.4341036345 2.2069839359
H -3.3408463777 -2.3392221089 3.2000705847
H -4.1513046933 -2.8415680749 1.7057926459
H -2.4109729104 -2.5293529334 1.7045203145
*
