! pbe def2-sv(p) def2/J RI DEFGRID1 loosescf d4 GCP(DFT/SV(P)) printgap
%output
    printlevel normal
end
* xyz 0 1
C 2.1451044445 -3.6903239003 0.4827419722
C 3.1172186559 -2.6149048189 0.0284042297
O 2.5295481764 -1.832908672 -1.0298103946
C 2.1518449786 -0.5983262477 -0.8002060434
O 2.2560426189 -0.0122781549 0.2598864982
C 1.5943747076 0.0639248256 -2.0450852471
C 0.3771655073 0.9223503983 -1.6990010311
H 0.185213438 1.636227346 -2.5037356362
C 0.5781568224 1.6902040384 -0.4058640495
O -0.1476570668 1.537026757 0.5621087302
O 1.5353705827 2.5673673599 -0.5002672248
C 1.8677736788 3.3452096679 0.6702930983
C 0.903887397 4.504989249 0.8563732337
S -1.1470256302 -0.0683962144 -1.5621747963
P -1.5887582671 -0.3594720016 0.5071655916
S -0.3360344686 -1.1136150454 1.8149843302
O -2.5348000067 0.8024404839 1.0312332494
C -3.773872626 1.1423488867 0.3817792048
O -2.7508119673 -1.4537969333 0.2146545196
C -2.4559513028 -2.8093508905 -0.1159040027
H 1.8213467067 -4.2840833077 -0.3670132364
H 2.634905527 -4.3322253742 1.2070338644
H 1.2770606039 -3.2325497506 0.9535393215
H 4.0166907777 -3.0529383543 -0.4079253285
H 3.3776141489 -1.9482945579 0.8549968858
H 1.3338854712 -0.6910727203 -2.7853037703
H 2.3803607049 0.7096256254 -2.4437671168
H 1.8573960542 2.6769587769 1.5360102257
H 2.8815996319 3.6926482174 0.4728646689
H -0.0975057759 4.132422311 1.0610971414
H 1.2312986642 5.1058780594 1.6982668198
H 0.8815497715 5.121481754 -0.0379900497
H -4.4998347223 0.3452040318 0.5311629286
H -3.6110973009 1.3005545288 -0.6846447014
H -4.0998463296 2.0606994752 0.863753061
H -2.1356733146 -2.8781019954 -1.155504947
H -3.3814358293 -3.3588165215 0.0371794986
H -1.6739376272 -3.1922672919 0.5432043408
*
