! pbe def2-sv(p) def2/J RI DEFGRID1 loosescf d4 GCP(DFT/SV(P)) printgap
%output
    printlevel normal
end
* xyz 0 1
C 2.6012651705 0.1581095982 -2.3779415606
C 2.0267702378 1.2947086659 -1.5601917233
O 1.186524177 0.8329252848 -0.4715463387
P 1.7090516022 0.0559062161 0.8046818913
S 0.7899663061 0.5779789609 2.4541438872
O 3.2605207047 0.3928989441 0.8127797513
C 4.0717494942 0.2099845432 1.9865605979
C 4.2669791715 -1.25528488 2.3159200949
S 1.6344707842 -2.0122506339 0.2889546876
C 0.0105267429 -2.0818778297 -0.5175818239
S -1.3396013355 -1.3505333104 0.4473832516
P -1.8598423441 0.284559824 -0.8254430762
S -1.1146348978 0.2513553815 -2.6304591382
O -1.5285827146 1.6488392716 -0.1102012026
C -2.1239940693 2.0721730125 1.1414796623
C -1.4981849491 3.3985187491 1.5149596107
O -3.4501554096 0.2918827856 -0.7077953847
C -4.3174145315 -0.8418160232 -0.8951490822
C -4.1110917092 -1.5333408769 -2.2265139116
H 3.2172726095 -0.486407699 -1.7547915913
H 1.801574051 -0.4258481541 -2.8276343012
H 3.2136647341 0.5765496927 -3.170463181
H 1.3461231607 1.9067287231 -2.1546482363
H 2.8173022368 1.9149334772 -1.13553978
H 5.0137685114 0.6966258419 1.7304244333
H 3.5957233763 0.7333630401 2.8221042089
H 4.9600463049 -1.3474146455 3.1458731952
H 3.3146550959 -1.7019354574 2.6002663954
H 4.6595173368 -1.7903830668 1.4552190572
H -0.2018134366 -3.1418053622 -0.6360938608
H 0.0473552503 -1.5748910101 -1.4867003468
H -3.2018243486 2.1599216195 0.9935343731
H -1.9176495679 1.3121745611 1.9008272463
H -1.9622931588 3.7654348032 2.4244839385
H -0.4330289183 3.2672909282 1.6883181933
H -1.6414856032 4.1182230739 0.7140879291
H -4.1529293655 -1.5368810495 -0.067030465
H -5.3172387567 -0.4100724904 -0.8219330187
H -4.2019539711 -0.8207640776 -3.0428944159
H -3.1196444165 -1.9813045818 -2.2708206531
H -4.8574503956 -2.3123081441 -2.3439638756
*
