! pbe def2-sv(p) def2/J RI DEFGRID1 loosescf d4 GCP(DFT/SV(P)) printgap
%output
    printlevel normal
end
* xyz 0 1
C 3.7119563966 -2.2669252182 1.6002770207
C 2.3298731162 -2.215917657 0.9820917725
O 1.8914012307 -0.8548266238 0.7998906753
P 2.4702322065 0.0704184548 -0.3707962248
S 3.1437375338 -0.8835542921 -1.9365117073
O 3.5847267061 0.9894254703 0.2776533914
C 3.4188900824 1.6918468875 1.53424007
C 3.0083936439 3.1319488771 1.3022376519
S 0.8025953605 1.3349772655 -0.6839849504
C -0.131528605 0.157099787 -1.6956619761
S -1.0044440128 -1.077100763 -0.7169132786
P -2.5186861189 0.2513495295 0.0089191286
S -3.0893218637 1.5893423599 -1.3057750397
O -1.9896435132 0.9982218523 1.2909272738
C -1.886034142 0.4602580805 2.6320689602
C -0.9516474567 -0.728051964 2.7186222682
O -3.6072138007 -0.724965826 0.6261468712
C -4.1708425554 -1.8703706989 -0.0397509546
C -4.8029054793 -1.523393938 -1.3710275345
H 3.7233055664 -1.7460452144 2.5540873554
H 3.9998061342 -3.3022066097 1.7526737994
H 4.4306121008 -1.795957615 0.9296313325
H 1.5725368802 -2.6569668105 1.631212044
H 2.322080446 -2.7168219408 0.0094478187
H 2.6829054685 1.1627642011 2.1438932335
H 4.4021159235 1.6339972686 2.0044522773
H 3.7218659434 3.6211553556 0.6448560914
H 2.0223950483 3.1821587278 0.8437832468
H 2.9837033108 3.6521932408 2.2547030953
H 0.5566834815 -0.3728459886 -2.3556336528
H -0.8593658808 0.7407668796 -2.2619539995
H -1.5117412647 1.308585207 3.2074398622
H -2.8896957742 0.1950368194 2.9693652595
H -0.826316206 -1.003427426 3.7612784828
H -1.362485273 -1.5759464921 2.1738754887
H 0.0177686758 -0.4776852869 2.2948607407
H -3.3792337818 -2.6132879363 -0.1709636847
H -4.9137382402 -2.2382502295 0.6703315031
H -5.2898989628 -2.4029364812 -1.7795533508
H -5.535761525 -0.7294551049 -1.2482802911
H -4.0425086866 -1.1812398866 -2.0715260665
*
