! pbe def2-sv(p) def2/J RI DEFGRID1 loosescf d4 GCP(DFT/SV(P)) printgap
%output
    printlevel normal
end
* xyz 0 1
C 3.5689930854 0.0516720916 2.3080769063
C 4.079162316 -0.6688701829 1.0777220394
O 3.5972783198 -0.0848071735 -0.155111473
P 2.0777696959 0.0728510464 -0.5891827041
S 1.9572776864 0.2750198615 -2.5303545152
O 1.4639072841 1.2762176883 0.268473073
C 1.4605034567 2.6250109251 -0.2200613086
C 2.8498574918 3.2273255084 -0.1998359747
S 1.1496091184 -1.6002292735 0.2788992057
C -0.1576945009 -1.9324280044 -0.9490750156
S -1.796131332 -1.981433618 -0.2077857931
P -1.9778803057 0.1090273056 0.1646901584
S -1.4596287579 1.2213603091 -1.3669267493
O -1.1048327045 0.5104479892 1.412926246
C -1.3966341914 0.2240695761 2.8045836663
C -1.3725258354 -1.2569508679 3.1211843039
O -3.4498776961 0.2546865187 0.7376122148
C -4.6262417523 -0.340825245 0.1587653416
C -4.8430472066 0.0715285696 -1.2817051442
H 3.9802525887 -0.4242580048 3.1927108216
H 3.8700883758 1.0958262694 2.2894097613
H 2.4824711479 -0.0014573185 2.3481157
H 3.7846229988 -1.7213346094 1.0944151619
H 5.163332986 -0.5898872575 0.9830525043
H 1.0485830616 2.6299194059 -1.2353047284
H 0.7722070356 3.1484795373 0.4457593147
H 3.2522033533 3.2187371518 0.8096118108
H 3.5064633439 2.6498724303 -0.8508947942
H 2.8027362992 4.2497149017 -0.5613000705
H 0.0187107124 -2.9188195732 -1.3704618007
H -0.116256618 -1.1599007663 -1.7229510407
H -0.6056044165 0.7583983942 3.3336309054
H -2.3665546901 0.6631083963 3.0442969403
H -0.4433008983 -1.7054619123 2.7763824261
H -1.4517821316 -1.3847739819 4.1963167224
H -2.2063390292 -1.76603478 2.6431670049
H -4.5339678453 -1.4272952939 0.2392457429
H -5.4342405298 0.0139576699 0.8010568605
H -5.7801416281 -0.3428930409 -1.6389672573
H -4.8716528388 1.1552974709 -1.3670925635
H -4.0307084491 -0.2985848401 -1.9056464373
*
