! pbe def2-sv(p) def2/J RI DEFGRID1 loosescf d4 GCP(DFT/SV(P)) printgap
%output
    printlevel normal
end
* xyz 0 1
C 3.9244488531 -1.3804745374 -2.534880418
C 4.0453337235 -1.5210859154 -1.0296007872
O 3.5789062177 -0.3567789141 -0.3277411958
P 2.048637122 0.0385331754 -0.1124610949
S 1.0972746013 0.6669096873 -1.7114614241
O 2.2192483313 1.0699996864 1.0696474371
C 2.2373872068 2.4941412061 0.8647681524
C 3.5068537243 2.9354243658 0.1683422325
S 1.2511709347 -1.6567307292 0.8694501461
C -0.099327769 -2.1058326562 -0.2781101939
S -1.7490700012 -2.0573127515 0.4723592181
P -2.1560755646 -0.0007589131 0.3593709844
S -0.9870441255 1.3030848906 1.2606597672
O -3.6725363152 0.1155819814 0.8243850672
C -4.0453257689 0.3408370577 2.1942872281
C -3.7097244605 -0.8480559699 3.0710216469
O -2.28322471 0.1404159247 -1.2098502188
C -2.4810110766 1.4217442585 -1.8480567327
C -2.1921092159 1.2533406172 -3.3243730856
H 2.880824024 -1.2985594545 -2.8303788923
H 4.4485180071 -0.4903238849 -2.8727232336
H 4.3597244713 -2.2538083086 -3.0097214656
H 5.0901966622 -1.6032480875 -0.724072815
H 3.4903782453 -2.3932416891 -0.6696980576
H 1.350521727 2.7769626549 0.2878433357
H 2.1528972117 2.9040707408 1.8720003482
H 3.5178480291 4.017889289 0.0897437801
H 4.3755789978 2.5998304363 0.7282650965
H 3.5449940891 2.5040177251 -0.8316498709
H 0.0525414348 -3.1405658407 -0.5724568876
H -0.0706397789 -1.4328351618 -1.1396320469
H -3.5306836681 1.2399239171 2.5490792854
H -5.120115108 0.5203529643 2.1476515862
H -4.1019538035 -0.6833410614 4.069411607
H -4.1393872016 -1.7563923475 2.6562576339
H -2.6283047054 -0.9694393893 3.13197725
H -3.5136156844 1.7305439813 -1.6687716218
H -1.8020845183 2.1480803285 -1.3883316112
H -2.3911809575 2.1898662423 -3.8345212727
H -1.1484623788 0.983163821 -3.4671831695
H -2.8224743149 0.4716706701 -3.7374676032
*
