! pbe def2-sv(p) def2/J RI DEFGRID1 loosescf d4 GCP(DFT/SV(P)) printgap
%output
    printlevel normal
end
* xyz 0 1
C 4.5771556378 -1.5452884241 -1.1293419085
C 4.670848636 -0.153507136 -0.5383073071
O 3.5473586011 0.1541821737 0.3053450953
P 2.0728140265 0.3501001231 -0.267225836
S 2.0315968109 1.2776516602 -2.0000152915
O 1.3876455077 1.0647382635 0.9689931792
C 1.6131214072 2.4671373765 1.2293283338
C 0.7808554079 2.8513233349 2.4335808257
S 1.2115822099 -1.5543348295 -0.1527745094
C -0.0079877157 -1.4381353381 -1.5101900856
S -1.7051702063 -1.6777336182 -0.9552487665
P -1.8975645561 0.0786288596 0.2317820958
S -1.3200527931 1.7058493279 -0.6979405239
O -1.134294215 -0.139121075 1.5901311689
C -1.580522637 -0.9520498807 2.7058077819
C -1.6660122128 -2.424426622 2.3635972768
O -3.4137006004 0.075321116 0.702524432
C -4.5022323294 0.4126691504 -0.1786130537
C -5.1252442217 -0.8318987766 -0.7794524344
H 4.4086329388 -2.2789877137 -0.3452062108
H 3.75226628 -1.5910857848 -1.8390762935
H 5.5013502739 -1.7759060834 -1.6492653849
H 4.7202368106 0.5985183311 -1.3323968194
H 5.5303768454 -0.0524766177 0.1256701309
H 2.6811505792 2.6182838168 1.4085218605
H 1.3132428983 3.0319362003 0.3394227677
H -0.2703688756 2.6706970383 2.2222328481
H 1.0759130525 2.2579412787 3.2939060277
H 0.9281660878 3.9049044828 2.6470954522
H 0.1925306956 -2.2425831209 -2.2130513903
H 0.0973990761 -0.4604386038 -1.9889516656
H -0.8184301359 -0.7617036204 3.4632964216
H -2.5456626726 -0.5677561645 3.040069356
H -2.4664918228 -2.6060336994 1.6500531803
H -0.7268265925 -2.7694666616 1.9362666058
H -1.8696081791 -2.9824371571 3.2723514766
H -5.2139755539 0.9433102263 0.4567925049
H -4.1324899252 1.0925551405 -0.9529245221
H -4.4065922443 -1.3570330231 -1.4045062058
H -5.4577759025 -1.4997107922 0.0100197088
H -5.9777991069 -0.5416501168 -1.3850067146
*
