! pbe def2-sv(p) def2/J RI DEFGRID1 loosescf d4 GCP(DFT/SV(P)) printgap
%output
    printlevel normal
end
* xyz 0 1
C 3.9290462283 -1.72672894 -2.3958442002
C 4.0137894946 -0.2400652781 -2.1198332444
O 3.4179704133 0.1189771825 -0.8581343204
P 1.8642716788 -0.0249442141 -0.5739927768
S 0.6777237429 0.4468933141 -2.0569595604
O 1.658329345 0.9043029751 0.684632334
C 2.6261202498 1.1776091233 1.7264199983
C 2.9646918067 -0.0521022004 2.5428314272
S 1.6020580929 -2.0207945343 0.1006235861
C -0.1999739061 -1.9588797062 0.1828966794
S -0.8244390577 -0.9478093186 1.5740649896
P -1.798376812 0.6932840449 0.674740825
S -1.000831755 2.4615742385 0.4124928126
O -3.0152761847 0.9318793409 1.6713159185
C -3.8235908937 -0.0634319241 2.3417995441
C -4.5691032134 -0.966183279 1.3806547571
O -2.3579016208 -0.0182284559 -0.6410168995
C -2.8440326481 0.7303629544 -1.7717141462
C -2.8640503143 -0.1953768119 -2.9697543374
H 2.8936807386 -2.0159570826 -2.5671801035
H 4.5094710648 -1.9564123974 -3.283616615
H 4.3177419535 -2.2929381377 -1.553342578
H 3.5141091905 0.3280203873 -2.9104612222
H 5.047249566 0.0947559983 -2.0189701198
H 3.5170354232 1.6010842833 1.2591665448
H 2.1251735796 1.9394250202 2.3272541345
H 2.0579262074 -0.5129225702 2.9292872464
H 3.5003338482 -0.777459974 1.9339678221
H 3.5946468266 0.2453429086 3.3753907796
H -0.5349033457 -2.9769517958 0.3611277246
H -0.5953232661 -1.5594867669 -0.7505718398
H -3.1760783015 -0.6444695665 3.0024869692
H -4.5103390967 0.5401798057 2.9379211969
H -5.1641739624 -0.3732886254 0.6902002385
H -3.8714237965 -1.5766205115 0.8121285888
H -5.226751284 -1.6168578223 1.9487227633
H -3.843378031 1.1004506395 -1.527423659
H -2.1807342515 1.5858514653 -1.9382480941
H -1.8495191249 -0.495688928 -3.220076431
H -3.4590216272 -1.077215252 -2.7508912721
H -3.2940466204 0.3320540967 -3.8145522709
*
