  24
  -31.8187623000000       7.243405662736109E-002 !gc
 C         -3.9800467821       -0.4753103676       -0.0014604510
 C         -2.5293750840       -0.1017656305       -0.0000798138
 C         -2.1687627664        1.2617785331        0.0002588379
 C         -0.8590460680        1.6461316938        0.0007157992
 C          0.1757041473        0.6868880215        0.0006671150
 C          1.5383017130        1.0479055500        0.0002657421
 C          2.5293695209        0.1017612411       -0.0002089067
 C          2.1687573287       -1.2617824939        0.0002387148
 C          0.8590389898       -1.6461271738        0.0007164449
 C         -0.1757002723       -0.6868695024        0.0006699650
 C         -1.5382974451       -1.0478963199        0.0003411493
 C          3.9800514662        0.4752860431       -0.0013926807
 H         -4.4717642880       -0.0707592130       -0.8849731784
 H         -4.1036998774       -1.5548503044        0.0042294793
 H         -4.4764368531       -0.0606773459        0.8746736766
 H         -2.9529466176        2.0053828064        0.0002581136
 H         -0.5950748882        2.6942648509        0.0009915284
 H          1.7908005499        2.0995095300        0.0000823226
 H          2.9529462042       -2.0053821798        0.0001402163
 H          0.5950402391       -2.6942524939        0.0009686399
 H         -1.7907688044       -2.0995083783        0.0001651207
 H          4.4749410007        0.0657078120        0.8779595605
 H          4.4733094415        0.0657430640       -0.8816922363
 H          4.1037164803        1.5548266863       -0.0015253815
  24
  -31.8187616800000       7.238654961949177E-002 !mtd11
 C         -3.9799768269       -0.4754914738        0.0001033469
 C         -2.5293904918       -0.1017109222       -0.0000838950
 C         -2.1687799085        1.2618267013       -0.0000234750
 C         -0.8590538341        1.6461920482        0.0000259253
 C          0.1756990818        0.6869456301       -0.0000316596
 C          1.5383050234        1.0479042715       -0.0001015897
 C          2.5293699314        0.1017340307        0.0000307572
 C          2.1687346173       -1.2617913478       -0.0000316729
 C          0.8589996881       -1.6460812099       -0.0000708875
 C         -0.1757044858       -0.6868317959        0.0000054171
 C         -1.5382896512       -1.0478421265        0.0000664820
 C          3.9800646517        0.4752188425        0.0000680337
 H         -4.4725768904       -0.0716296734        0.8834510826
 H         -4.4758046933       -0.0604283468       -0.8762019540
 H         -4.1033713124       -1.5550798641       -0.0063679261
 H         -2.9529631393        2.0054375803       -0.0001095133
 H         -0.5950190528        2.6943146797       -0.0000353142
 H          1.7908229086        2.0995178530       -0.0001237784
 H          2.9528970647       -2.0054215244       -0.0001588333
 H          0.5949696004       -2.6942088833       -0.0002890953
 H         -1.7907759782       -2.0994534610        0.0001775068
 H          4.4734918588        0.0680993518       -0.8812466119
 H          4.1038081760        1.5547656459        0.0030244965
 H          4.4747860645        0.0632209040        0.8783949592
  24
  -31.8187616000000       7.238042195275915E-002 !md1
 C         -3.9800505314       -0.4753161117       -0.0000324864
 C         -2.5294238531       -0.1017803392        0.0002518391
 C         -2.1687477310        1.2617505753        0.0001977375
 C         -0.8590511339        1.6461323099       -0.0000955547
 C          0.1757095863        0.6868697945       -0.0002071828
 C          1.5383139272        1.0479349704       -0.0001808946
 C          2.5293648270        0.1017864664        0.0000161897
 C          2.1687509682       -1.2617488746        0.0000463421
 C          0.8590355115       -1.6461277068       -0.0000538887
 C         -0.1756855582       -0.6868506986       -0.0001283461
 C         -1.5382877886       -1.0478665089        0.0000084771
 C          3.9800781572        0.4752333617        0.0002130772
 H         -4.4769460511       -0.0566687295        0.8740295266
 H         -4.4714730156       -0.0748173107       -0.8856620805
 H         -4.1036975465       -1.5548899771        0.0104511818
 H         -2.9528982431        2.0054242652        0.0003573592
 H         -0.5951223146        2.6942714786       -0.0002817278
 H          1.7907476369        2.0995495152       -0.0002200933
 H          2.9528921944       -2.0053921234        0.0001781085
 H          0.5950735441       -2.6942514836       -0.0000798471
 H         -1.7907684448       -2.0994796473        0.0001516490
 H          4.4743838048        0.0642967251        0.8792575806
 H          4.4738665006        0.0669757382       -0.8803977720
 H          4.1038658887        1.5547761219        0.0017953383
  24
  -31.8187615500000       7.237659242484032E-002 !mtd12
 C         -3.9800493959       -0.4753016316       -0.0006745372
 C         -2.5293799387       -0.1017459452        0.0003048099
 C         -2.1687608521        1.2617851992        0.0002106283
 C         -0.8590306947        1.6461243929        0.0001381536
 C          0.1756992487        0.6868707688        0.0000818122
 C          1.5382989672        1.0478876877        0.0000082014
 C          2.5293812058        0.1017590636       -0.0000449781
 C          2.1687636291       -1.2617829522        0.0000346880
 C          0.8590423632       -1.6461335987        0.0001638318
 C         -0.1757133004       -0.6868952805        0.0001691893
 C         -1.5383037611       -1.0478985691        0.0002932573
 C          3.9800526934        0.4753248215       -0.0003022489
 H         -4.4701112857       -0.0777357236       -0.8882563307
 H         -4.1037446635       -1.5547291993        0.0130311399
 H         -4.4780971328       -0.0538800736        0.8711771574
 H         -2.9529165186        2.0054169416        0.0000985670
 H         -0.5950571276        2.6942569729        0.0000610950
 H          1.7907697248        2.0994993222        0.0000142242
 H          2.9529273682       -2.0054084344       -0.0000966092
 H          0.5950842713       -2.6942724843        0.0001815590
 H         -1.7908349505       -2.0994943548        0.0004470453
 H          4.1036932043        1.5548657204        0.0009228988
 H          4.4746078258        0.0647022456        0.8787414971
 H          4.4736773237        0.0668510897       -0.8808841074
  24
  -31.8187615500000       7.237659242484032E-002 !mtd5
 C         -3.9800774550       -0.4753232162       -0.0003536358
 C         -2.5293977362       -0.1017845323       -0.0001557384
 C         -2.1687584487        1.2617688226        0.0005793566
 C         -0.8590480599        1.6461355789        0.0004688080
 C          0.1757274899        0.6868982880       -0.0001266161
 C          1.5383228431        1.0479182293       -0.0006188746
 C          2.5293771888        0.1017599034       -0.0003498104
 C          2.1687465198       -1.2617760645        0.0005128502
 C          0.8590229591       -1.6461206553        0.0003921496
 C         -0.1756957749       -0.6868503842       -0.0000268654
 C         -1.5382974576       -1.0478883071       -0.0003651536
 C          3.9800784896        0.4752783425       -0.0001294098
 H         -4.4725922394       -0.0718763325        0.8831890931
 H         -4.4757114049       -0.0596753483       -0.8764171687
 H         -4.1037087949       -1.5548422452       -0.0074523489
 H         -2.9529299987        2.0053828699        0.0016189788
 H         -0.5951475272        2.6942865226        0.0011075944
 H          1.7907969964        2.0995230784       -0.0009855645
 H          2.9529143016       -2.0054016801        0.0010897790
 H          0.5950443079       -2.6942438927        0.0005886483
 H         -1.7907031578       -2.0995170622       -0.0012368329
 H          4.1038428955        1.5546876726       -0.0080762586
 H          4.4719734921        0.0726601324        0.8839986233
 H          4.4762144809        0.0588255555       -0.8753636469
  24
  -31.8187615200000       7.237429480501791E-002 !md2
 C         -3.9800140525       -0.4754315507        0.0019945495
 C         -2.5293652521       -0.1017111720        0.0005246641
 C         -2.1687689191        1.2617919001       -0.0002881231
 C         -0.8590121368        1.6461465966       -0.0012333605
 C          0.1757161367        0.6869379696       -0.0011504155
 C          1.5383176040        1.0479064724       -0.0002752007
 C          2.5293627259        0.1017608200        0.0005534291
 C          2.1687351319       -1.2617819395       -0.0003326118
 C          0.8590235480       -1.6461153693       -0.0011996929
 C         -0.1757110669       -0.6868468641       -0.0010769778
 C         -1.5382748721       -1.0478513721       -0.0003152317
 C          3.9800353708        0.4752446213        0.0019266410
 H         -4.1035822199       -1.5549648257        0.0068449413
 H         -4.4742725264       -0.0618829894        0.8798067439
 H         -4.4740265965       -0.0699869464       -0.8797722065
 H         -2.9528831623        2.0054852582        0.0001718483
 H         -0.5951572772        2.6943250541       -0.0013325401
 H          1.7908782014        2.0994849093        0.0000268135
 H          2.9528856088       -2.0054039415       -0.0003362370
 H          0.5950210095       -2.6942584454       -0.0017074494
 H         -1.7907830987       -2.0994516807       -0.0000515775
 H          4.4735405780        0.0710782394       -0.8808690338
 H          4.1034927312        1.5548824031        0.0085299151
 H          4.4743598144        0.0600957828        0.8790842191
  24
  -31.8187614900000       7.237199725840630E-002 !mtd6
 C         -3.9800069619       -0.4753650853        0.0002758114
 C         -2.5293948905       -0.1016741363        0.0002373694
 C         -2.1687946197        1.2618270135       -0.0002489372
 C         -0.8590329590        1.6461115687       -0.0003062161
 C          0.1756989325        0.6868706422       -0.0000719787
 C          1.5382813153        1.0478694443        0.0000956166
 C          2.5293730426        0.1017260437       -0.0000043638
 C          2.1687622933       -1.2618155314       -0.0003520030
 C          0.8590537581       -1.6461804399       -0.0002683453
 C         -0.1756896875       -0.6869301503       -0.0000223461
 C         -1.5382675413       -1.0478181083        0.0002317807
 C          3.9799999853        0.4753670504        0.0004778815
 H         -4.1033912742       -1.5548115588        0.0124281225
 H         -4.4769466397       -0.0555328743        0.8735197606
 H         -4.4713106694       -0.0764121686       -0.8859054747
 H         -2.9528110280        2.0056066608       -0.0005669973
 H         -0.5949407194        2.6942306719       -0.0009992661
 H          1.7908825149        2.0994490786        0.0007019340
 H          2.9529771837       -2.0053957137       -0.0009183461
 H          0.5950047999       -2.6942870264       -0.0011098705
 H         -1.7910695427       -2.0993695515        0.0007658208
 H          4.4746184283        0.0631461863        0.8787249074
 H          4.4736704589        0.0686179957       -0.8808692431
 H          4.1035230419        1.5548975920        0.0037010987
  24
  -31.8187614800000       7.237123142565328E-002 !mtd7
 C         -3.9800278760       -0.4752550063        0.0033205081
 C         -2.5293737584       -0.1017210794        0.0004994378
 C         -2.1687768175        1.2617582172       -0.0003319824
 C         -0.8590098748        1.6461028345       -0.0016087818
 C          0.1756583690        0.6868352512       -0.0017367326
 C          1.5383015947        1.0478609559       -0.0008452064
 C          2.5293739889        0.1017887454        0.0004932842
 C          2.1687471127       -1.2617851928       -0.0002095030
 C          0.8590773218       -1.6461576803       -0.0016374426
 C         -0.1757307299       -0.6869133933       -0.0018172935
 C         -1.5382884130       -1.0479065097       -0.0009255333
 C          3.9800510864        0.4753473064        0.0031748825
 H         -4.1036603835       -1.5546883803        0.0030774029
 H         -4.4718941265       -0.0662837740        0.8846051993
 H         -4.4763035544       -0.0651571831       -0.8749922161
 H         -2.9528421076        2.0054894491        0.0003142735
 H         -0.5950435218        2.6942329417       -0.0020301264
 H          1.7906667907        2.0995339121       -0.0005231964
 H          2.9529696999       -2.0053767818        0.0002284302
 H          0.5950899566       -2.6942999567       -0.0022704391
 H         -1.7909191778       -2.0994834742       -0.0008603098
 H          4.1036233207        1.5549472762        0.0048394592
 H          4.4726582543        0.0646750270        0.8833586114
 H          4.4756309717        0.0669537703       -0.8763897851
  24
  -31.8187611400000       7.234519793552156E-002 !mtd9
 C         -3.9800596053       -0.4749673420       -0.0019798094
 C         -2.5293394098       -0.1017965310       -0.0009193764
 C         -2.1687026537        1.2617433784        0.0003267824
 C         -0.8589685299        1.6460610121        0.0014207755
 C          0.1756559863        0.6867068819        0.0014213327
 C          1.5382527980        1.0477895871        0.0006659706
 C          2.5294083937        0.1017538950       -0.0001740329
 C          2.1688202554       -1.2618153118        0.0007210540
 C          0.8591108724       -1.6461974119        0.0014591639
 C         -0.1757493043       -0.6870479465        0.0011808735
 C         -1.5383511809       -1.0480318971       -0.0000777750
 C          3.9799839970        0.4756016905       -0.0030290170
 H         -4.4777051141       -0.0497710285       -0.8723557733
 H         -4.1043682966       -1.5542658571       -0.0200770493
 H         -4.4704697631       -0.0807728747        0.8869983555
 H         -2.9528885241        2.0053442482        0.0004658454
 H         -0.5949207981        2.6941537840        0.0019929998
 H          1.7905728506        2.0994285181       -0.0000409340
 H          2.9530053120       -2.0054042887        0.0012837574
 H          0.5952688737       -2.6943668182        0.0023800573
 H         -1.7910022582       -2.0996039982       -0.0007054755
 H          4.4714075584        0.0690913271       -0.8857909543
 H          4.1033368274        1.5551948392       -0.0000865282
 H          4.4770290292        0.0633554647        0.8738288657
  24
  -31.8182830100000       4.361906732042788E-002 !gc
 C         -3.9757846769       -0.4947494405       -0.0014952485
 C         -2.5313265379       -0.0925697715        0.0005043980
 C         -2.1687131625        1.2675780990        0.0004901843
 C         -0.8564741835        1.6496735194        0.0003819885
 C          0.1759816740        0.6901029847        0.0002109182
 C          1.5398156302        1.0488022986       -0.0005255278
 C          2.5288673402        0.1012267303       -0.0009442569
 C          2.1659752271       -1.2623866948       -0.0002277835
 C          0.8562674999       -1.6449214726        0.0004572300
 C         -0.1777568199       -0.6837626749        0.0005233670
 C         -1.5391904592       -1.0412254102        0.0006429788
 C          3.9802315026        0.4719452165        0.0002094288
 H         -4.6226397719        0.3780453546        0.0221799087
 H         -4.2050697058       -1.0740087521       -0.8945580383
 H         -4.1968023271       -1.1169015387        0.8641548925
 H         -2.9482245538        2.0162305347        0.0006307180
 H         -0.5917620258        2.6976084151        0.0004706391
 H          1.7938421523        2.1000395358       -0.0010105028
 H          2.9492619100       -2.0069325789       -0.0003696168
 H          0.5906078347       -2.6925855585        0.0006952932
 H         -1.7970867138       -2.0915090515        0.0008284930
 H          4.1060883453        1.5507788237       -0.0317821764
 H          4.4649802786        0.0894905977        0.8973666184
 H          4.4819129887        0.0339912109       -0.8613194232
  24
  -31.8182824100000       4.359138162720230E-002 !gc
 C         -3.9757962977       -0.4947906278       -0.0000766324
 C         -2.5313201429       -0.0925891322        0.0003891692
 C         -2.1687501754        1.2675436650        0.0002726318
 C         -0.8564934723        1.6496856938       -0.0001548643
 C          0.1759812008        0.6901863843       -0.0003624157
 C          1.5398338903        1.0488618404       -0.0008309541
 C          2.5288377512        0.1012645492       -0.0008073873
 C          2.1659621807       -1.2623725532       -0.0003561621
 C          0.8562669836       -1.6449127413       -0.0001220191
 C         -0.1777461072       -0.6837102342       -0.0000606840
 C         -1.5391327580       -1.0412198011        0.0002157522
 C          3.9802562610        0.4717955005        0.0013808394
 H         -4.1988967277       -1.1051321777        0.8734568850
 H         -4.6225791115        0.3783373056        0.0106789967
 H         -4.2031023516       -1.0859939364       -0.8857063126
 H         -2.9482209050        2.0162295552        0.0005432350
 H         -0.5918749400        2.6976509891       -0.0002589808
 H          1.7939318714        2.1000791821       -0.0011762985
 H          2.9492871714       -2.0068759102       -0.0003347793
 H          0.5905165053       -2.6925528788       -0.0001460051
 H         -1.7970872849       -2.0914868315        0.0003938894
 H          4.1063698139        1.5505653046       -0.0318272550
 H          4.4639083006        0.0903918188        0.8995630483
 H          4.4827812291        0.0326870830       -0.8590763330
  24
  -31.8182821400000       4.357892879907246E-002 !gc
 C         -3.9759490029       -0.4945704866        0.0006143369
 C         -2.5314121205       -0.0925965447        0.0001482493
 C         -2.1686281032        1.2674825406        0.0000065570
 C         -0.8563468346        1.6496015517       -0.0003404556
 C          0.1759602410        0.6900239529       -0.0004128553
 C          1.5398487614        1.0487624163       -0.0007503686
 C          2.5289203290        0.1013152473       -0.0007812583
 C          2.1660060078       -1.2623718788       -0.0004369138
 C          0.8563403805       -1.6449341932       -0.0002767277
 C         -0.1778503453       -0.6838285520       -0.0002379754
 C         -1.5392396505       -1.0413286629       -0.0000552156
 C          3.9802745766        0.4720562210        0.0016530365
 H         -4.6226022112        0.3787090478       -0.0009372489
 H         -4.2010755867       -1.0969967980       -0.8779869833
 H         -4.2012749344       -1.0939367257        0.8812712826
 H         -2.9479366807        2.0163367346        0.0001652721
 H         -0.5918425175        2.6975794489       -0.0004499202
 H          1.7936331545        2.1000625795       -0.0010691360
 H          2.9493745468       -2.0068270697       -0.0004702460
 H          0.5906813454       -2.6925972256       -0.0003076965
 H         -1.7973007093       -2.0915698313        0.0000251582
 H          4.4834965699        0.0318583495       -0.8577869632
 H          4.1061253460        1.5508038142       -0.0328424685
 H          4.4634582220        0.0920374756        0.9007517371
  24
  -31.8182819300000       4.356924572551389E-002 !gc
 C         -3.9757549545       -0.4949454155       -0.0044122417
 C         -2.5313427304       -0.0925483683       -0.0006765637
 C         -2.1687487655        1.2676031000        0.0009071622
 C         -0.8564952120        1.6497290583        0.0024029067
 C          0.1759815244        0.6902024443        0.0020064097
 C          1.5398420810        1.0488520030        0.0003616926
 C          2.5288476080        0.1012462741       -0.0013262419
 C          2.1659482687       -1.2623790828        0.0006221185
 C          0.8562428271       -1.6448856924        0.0024049562
 C         -0.1777536628       -0.6836723312        0.0020940076
 C         -1.5391542268       -1.0411649307        0.0009037974
 C          3.9802708379        0.4717646036       -0.0036874877
 H         -4.1976391385       -1.0995985479       -0.8822270749
 H         -4.2041096254       -1.0920442424        0.8770083204
 H         -4.6226837007        0.3781469855       -0.0104130741
 H         -2.9482367934        2.0162645604        0.0002760233
 H         -0.5918562610        2.6976841101        0.0035606640
 H          1.7939268705        2.1000736682       -0.0004347914
 H          2.9492500159       -2.0069106823        0.0002427397
 H          0.5904997978       -2.6925269199        0.0035194915
 H         -1.7970568396       -2.0914442191        0.0001125285
 H          4.1062532210        1.5506175651       -0.0357261682
 H          4.4674635955        0.0888681846        0.8918929006
 H          4.4794097528        0.0340645289       -0.8668846778
  24
  -31.8182819100000       4.356832364017361E-002 !gc
 C         -3.9757335929       -0.4949024555       -0.0032615898
 C         -2.5313292624       -0.0925251697       -0.0008208512
 C         -2.1687950937        1.2675677333        0.0006892639
 C         -0.8565138397        1.6496907845        0.0020091932
 C          0.1759683333        0.6902349441        0.0017464831
 C          1.5398496840        1.0488911070        0.0001228469
 C          2.5288143178        0.1012766250       -0.0013629396
 C          2.1659405067       -1.2623851860        0.0005723571
 C          0.8562657569       -1.6449034473        0.0020499761
 C         -0.1777396111       -0.6836683277        0.0017153115
 C         -1.5391025526       -1.0411635664        0.0003572574
 C          3.9802570296        0.4717156841       -0.0028293580
 H         -4.1962333336       -1.1077187681       -0.8757197579
 H         -4.2052619912       -1.0838439290        0.8833334914
 H         -4.6227691403        0.3779546003       -0.0181025661
 H         -2.9482362015        2.0162934852        0.0004997301
 H         -0.5919656575        2.6976736594        0.0027392898
 H          1.7939729348        2.1001049174       -0.0007170855
 H          2.9493007933       -2.0068470505        0.0004013266
 H          0.5904136838       -2.6925136855        0.0028556466
 H         -1.7971118705       -2.0914168394       -0.0003031941
 H          4.4810646457        0.0299045361       -0.8628724308
 H          4.1064200594        1.5503476945       -0.0394823588
 H          4.4656498424        0.0929338666        0.8955946433
  24
  -31.8182818800000       4.356694054891694E-002 !gc
 C         -3.9757814535       -0.4948078418        0.0032709357
 C         -2.5313128766       -0.0925859440        0.0003454506
 C         -2.1687733892        1.2675488598       -0.0004321531
 C         -0.8565081384        1.6496883579       -0.0016188899
 C          0.1759766569        0.6902025157       -0.0016575862
 C          1.5398393549        1.0488613597       -0.0012872819
 C          2.5288389063        0.1012558607       -0.0004475002
 C          2.1659655270       -1.2623803734       -0.0008413138
 C          0.8562695413       -1.6449000770       -0.0015718021
 C         -0.1777390525       -0.6836962852       -0.0014754127
 C         -1.5391193319       -1.0412077932       -0.0006575554
 C          3.9802473772        0.4717728666        0.0041827064
 H         -4.2012467685       -1.0869821457        0.8887042381
 H         -4.6225756762        0.3783758286       -0.0051063333
 H         -4.2007471194       -1.1040717019       -0.8705167084
 H         -2.9482447061        2.0162318075       -0.0000627355
 H         -0.5919002762        2.6976540370       -0.0022372424
 H          1.7939485650        2.1000767195       -0.0013888547
 H          2.9492785426       -2.0068986394       -0.0006264340
 H          0.5904960671       -2.6925335086       -0.0020974985
 H         -1.7970854288       -2.0914718071       -0.0003832602
 H          4.4853501988        0.0292713746       -0.8529637475
 H          4.1065152769        1.5503828113       -0.0325603113
 H          4.4611995277        0.0937579254        0.9053416013
  24
  -31.8182817000000       4.355864292304135E-002 !gc
 C         -3.9757687400       -0.4949014721       -0.0016836761
 C         -2.5313420296       -0.0925581896       -0.0001134703
 C         -2.1687385813        1.2675966672        0.0004040677
 C         -0.8564894445        1.6497148910        0.0008545732
 C          0.1759876238        0.6901812042        0.0005777542
 C          1.5398399210        1.0488300878       -0.0003310540
 C          2.5288545602        0.1012299984       -0.0011528612
 C          2.1659548495       -1.2623916867       -0.0000644761
 C          0.8562444166       -1.6449008954        0.0008865122
 C         -0.1777498483       -0.6836893384        0.0007454719
 C         -1.5391588745       -1.0411754904        0.0005021845
 C          3.9802606533        0.4718253205       -0.0005016473
 H         -4.2003494750       -1.0948239087       -0.8820629309
 H         -4.2014634304       -1.0966993272        0.8772021158
 H         -4.6226834350        0.3782282445       -0.0011214872
 H         -2.9482306536        2.0162549949        0.0000483706
 H         -0.5918430603        2.6976675013        0.0014791603
 H          1.7939199237        2.1000529314       -0.0008386564
 H          2.9492467669       -2.0069352046       -0.0002624047
 H          0.5905175863       -2.6925465441        0.0015034431
 H         -1.7970536400       -2.0914572051        0.0001683487
 H          4.4635413924        0.0955161359        0.9000852488
 H          4.4831955193        0.0279617905       -0.8581850236
 H          4.1062933734        1.5504590014       -0.0394864703
  24
  -31.8182810900000       4.353053494176001E-002 !gc
 C         -3.9757650859       -0.4948651678        0.0025745045
 C         -2.5313182152       -0.0925709181        0.0007979947
 C         -2.1687649632        1.2675575004       -0.0002120527
 C         -0.8564994903        1.6496969046       -0.0015822868
 C          0.1759883125        0.6902133527       -0.0016704694
 C          1.5398470763        1.0488680982       -0.0014666685
 C          2.5288335573        0.1012493173       -0.0007123715
 C          2.1659438034       -1.2623832017       -0.0009737336
 C          0.8562456238       -1.6449136824       -0.0014912701
 C         -0.1777424737       -0.6836895290       -0.0013308618
 C         -1.5391194860       -1.0411943902       -0.0002606358
 C          3.9802543308        0.4717692528        0.0043544961
 H         -4.1973967323       -1.1048491471        0.8767308075
 H         -4.6225930323        0.3782257284        0.0140727100
 H         -4.2044622510       -1.0864086535       -0.8824568220
 H         -2.9482313362        2.0162476027        0.0002293100
 H         -0.5918972412        2.6976686267       -0.0022110586
 H          1.7939766731        2.1000791843       -0.0016880846
 H          2.9492546179       -2.0068993697       -0.0008569961
 H          0.5904741440       -2.6925481448       -0.0019719305
 H         -1.7970913558       -2.0914566648        0.0002191755
 H          4.4587754349        0.1014619105        0.9099942146
 H          4.4876121553        0.0223189105       -0.8477397426
 H          4.1065686940        1.5501191867       -0.0408053947
