  24
        -31.81876230
 C         -3.9800467821       -0.4753103676       -0.0014604510
 C         -2.5293750840       -0.1017656305       -0.0000798138
 C         -2.1687627664        1.2617785331        0.0002588379
 C         -0.8590460680        1.6461316938        0.0007157992
 C          0.1757041473        0.6868880215        0.0006671150
 C          1.5383017130        1.0479055500        0.0002657421
 C          2.5293695209        0.1017612411       -0.0002089067
 C          2.1687573287       -1.2617824939        0.0002387148
 C          0.8590389898       -1.6461271738        0.0007164449
 C         -0.1757002723       -0.6868695024        0.0006699650
 C         -1.5382974451       -1.0478963199        0.0003411493
 C          3.9800514662        0.4752860431       -0.0013926807
 H         -4.4717642880       -0.0707592130       -0.8849731784
 H         -4.1036998774       -1.5548503044        0.0042294793
 H         -4.4764368531       -0.0606773459        0.8746736766
 H         -2.9529466176        2.0053828064        0.0002581136
 H         -0.5950748882        2.6942648509        0.0009915284
 H          1.7908005499        2.0995095300        0.0000823226
 H          2.9529462042       -2.0053821798        0.0001402163
 H          0.5950402391       -2.6942524939        0.0009686399
 H         -1.7907688044       -2.0995083783        0.0001651207
 H          4.4749410007        0.0657078120        0.8779595605
 H          4.4733094415        0.0657430640       -0.8816922363
 H          4.1037164803        1.5548266863       -0.0015253815
