! pbe def2-sv(p) def2/J RI DEFGRID1 loosescf d4 GCP(DFT/SV(P)) printgap
%output
    printlevel normal
end
* xyz 0 1
C 4.3178522649 -1.9861711617 0.8878240869
C 2.8391782777 -1.9927409824 0.5565667158
O 2.6083747087 -1.0190880645 -0.481887994
C 1.43743627 -1.0022905852 -1.0743310343
O 0.5155419912 -1.7460466045 -0.7936305385
C 1.3544661192 0.0594177854 -2.150393978
C 0.2189685317 1.0404593884 -1.8441488839
H 0.1258055047 1.7572752234 -2.6646804243
C 0.447607116 1.798962342 -0.5495212848
O -0.42011843 1.8951712531 0.2996267876
O 1.6409225592 2.3113146339 -0.4769098752
C 2.0443340802 2.9791315607 0.7403215628
C 2.6748974301 1.9810394644 1.6965621022
S -1.4160034587 0.2402014786 -1.7328346529
P -1.5910349908 -0.2959137786 0.3134277361
S -0.3477916012 -0.5620295729 1.8072462203
O -2.7835851128 0.604061704 0.9001312364
C -3.9096369938 1.0037416489 0.1072879287
O -2.3456410177 -1.6697544568 -0.0980568866
C -2.7209465248 -2.62409153 0.8927864371
H 4.6131372785 -1.010405422 1.2605113194
H 4.5123621612 -2.7310935436 1.6518277603
H 4.8999795286 -2.2189862756 0.001175882
H 2.2223014736 -1.7238785648 1.420197957
H 2.5049816751 -2.9682417086 0.1894971608
H 1.1386194577 -0.4325321598 -3.0995526561
H 2.3019067252 0.5947277754 -2.2019756851
H 2.7641026796 3.7274983327 0.4091055454
H 1.1688955426 3.4536658359 1.190230408
H 1.9403448588 1.2386704087 2.0071487619
H 3.5037085517 1.4733619112 1.2110198644
H 3.0357810706 2.5031158739 2.5761290566
H -3.6603631046 1.9123463896 -0.4397095623
H -4.7130219311 1.1923780187 0.8155978655
H -4.1888216161 0.2136194551 -0.5918618002
H -3.3781005737 -2.1689830073 1.6367239987
H -1.8303633591 -3.014336144 1.3880042938
H -3.2360896199 -3.4156904317 0.3546485915
*
