  26
        -26.32330729
 C          4.4408149880       -0.2695866377       -0.0036211628
 C          3.1501765974        0.5411696444        0.0001801911
 C          1.9144955710       -0.3561114917        0.0015254339
 C          0.6173180187        0.4492719508        0.0023880214
 C         -0.6173524554       -0.4492586087        0.0029805957
 C         -1.9145144023        0.3561612053        0.0004609412
 C         -3.1501459129       -0.5411883639       -0.0006124661
 C         -4.4407946658        0.2695499077       -0.0027637528
 H          4.4898690198       -0.9022215435       -0.8870643789
 H          5.3062606880        0.3884557058       -0.0030953354
 H          4.4922924249       -0.9068911347        0.8763219896
 H          3.1282169665        1.1847994223        0.8825181834
 H          3.1245466885        1.1871015936       -0.8803892816
 H          1.9374655083       -1.0015254034       -0.8798235549
 H          1.9390288727       -1.0012493543        0.8830273627
 H          0.5940341962        1.0948339215        0.8836486508
 H          0.5930678174        1.0947016873       -0.8789530815
 H         -0.5942990273       -1.0932925759        0.8853638598
 H         -0.5928497134       -1.0962091027       -0.8772390195
 H         -1.9369858294        1.0006241505       -0.8815989728
 H         -1.9395549154        1.0022472815        0.8812575919
 H         -3.1274800672       -1.1855108131        0.8812087298
 H         -3.1252074041       -1.1864381659       -0.8816995398
 H         -4.4902331035        0.9035640501       -0.8852000232
 H         -4.4919424687        0.9054626714        0.8782047938
 H         -5.3062027059       -0.3885430313       -0.0028968775
