! pbe def2-sv(p) def2/J RI DEFGRID1 loosescf d4 GCP(DFT/SV(P)) printgap
%output
    printlevel normal
end
* xyz 0 1
C 3.8919163754 3.0081616922 -0.8720147947
C 2.6562673326 2.1910409694 -0.5555852527
O 3.0832977545 0.9543031593 0.0479000667
P 2.0645758476 0.0456005625 0.8645050929
S 1.0578908246 0.9899050703 2.2480565444
O 2.997540195 -1.0576932898 1.4875640518
C 4.0325155706 -1.7694199444 0.7562229749
C 3.5914819998 -3.184778002 0.440128744
S 1.0235629797 -0.8999749692 -0.7496154286
C -0.0553048904 -2.0130577593 0.1834323349
S -1.3839063717 -1.1719025141 1.1018017325
P -2.0923907135 0.0241121193 -0.4860154482
S -2.1881335935 -0.8499218915 -2.243217555
O -1.1367891451 1.2805306279 -0.316602334
C -1.4358100029 2.6087061377 -0.7957837925
C -1.3471804161 2.7005087329 -2.3055990432
O -3.4781851917 0.6105949503 0.0230486561
C -4.7284295481 -0.0541136601 -0.2339261002
C -4.8655357292 -1.3307886435 0.5692447529
H 4.4440166631 3.2140500135 0.0405197627
H 4.5334288884 2.4623487235 -1.5573859933
H 3.5915830958 3.9451824784 -1.3292327506
H 2.0914398628 1.9504228857 -1.4606994049
H 1.9992645806 2.7106089359 0.1500791013
H 4.2752543091 -1.2138699108 -0.1503870934
H 4.8886401602 -1.7639628316 1.4323746477
H 4.4347128079 -3.7301199146 0.028020497
H 3.2566977502 -3.6827356155 1.34616661
H 2.7845910182 -3.1848600897 -0.2885086136
H 0.519337688 -2.5665516805 0.9232165951
H -0.4967345535 -2.6788361041 -0.5572567116
H -2.4286207912 2.8912209546 -0.4389149749
H -0.6815808695 3.2292565328 -0.3073977926
H -2.1167476395 2.0837995122 -2.7668162003
H -1.4871694154 3.7324857901 -2.6110435745
H -0.3766225677 2.3508454273 -2.649551219
H -5.4806246105 0.6839107404 0.0476661765
H -4.7923046713 -0.265543165 -1.3062988736
H -5.8646772849 -1.7331989845 0.437182382
H -4.1390985146 -2.0655328632 0.2248450636
H -4.6898810671 -1.1345326248 1.6240747894
*
