! r2scan-3c def2/J RI DEFGRID2 scfconv6 printgap
%output
    printlevel normal
end
%cpcm
    smd true
    smdsolvent "water"
end
* xyz 0 1
C 4.9335561399 -3.3797347178 -1.3608551301
C 3.9211504245 -2.6703272449 -0.4839672511
O 3.134747786 -1.8031038811 -1.3261078267
C 2.2990832505 -0.9721542418 -0.7521771682
O 2.1360831322 -0.8825818203 0.4494231618
C 1.5633990082 -0.1097988246 -1.7553094674
C 0.3177120418 0.4685749145 -1.101087992
H -0.1408745466 1.2376395544 -1.7296313361
C 0.6286192218 1.0897497999 0.2492895564
O -0.0599440804 0.8857877122 1.2308777822
O 1.6209689794 1.9363752136 0.1795606716
C 2.011365708 2.6381422771 1.3792222106
C 3.1301162927 1.8939082422 2.0886179695
S -0.9248264022 -0.8405226357 -0.8251937495
P -2.3624258368 0.277852606 0.2625018719
S -2.4768207626 2.1982025357 -0.1008419272
O -3.6944990009 -0.493100807 -0.221338815
C -4.1827016146 -0.375526049 -1.559754828
O -2.433431827 -0.1278603246 1.7893385347
C -2.1536567689 -1.4611820483 2.2504651764
H 5.5842953865 -2.6556077552 -1.8413898292
H 5.5309453297 -4.0480899049 -0.7498932442
H 4.4222833544 -3.9544352632 -2.1268192028
H 4.4019313491 -2.0616983819 0.2879874273
H 3.2432494249 -3.3755602913 0.0061761221
H 1.3094157502 -0.7022625759 -2.6332631744
H 2.2263669418 0.7044368476 -2.0558224697
H 2.3371875481 3.6178193306 1.028255531
H 1.1327565271 2.7377610907 2.0227203247
H 4.0093823034 1.8425917252 1.4528252144
H 3.3796796581 2.4116909182 3.0086360271
H 2.8070350829 0.881522358 2.3229348811
H -4.2088960243 0.6747858177 -1.8556642427
H -5.1871648636 -0.7904840183 -1.5429766029
H -3.5425684223 -0.9389422784 -2.2386482232
H -1.083503836 -1.6545636799 2.1668749477
H -2.7194086403 -2.1892122117 1.6705153797
H -2.4615706124 -1.4705683487 3.2927692748
*
