! pbe def2-sv(p) def2/J RI DEFGRID1 loosescf d4 GCP(DFT/SV(P)) printgap
%output
    printlevel normal
end
* xyz 0 1
C 3.6000725939 1.7852930059 -1.8486462158
C 2.3434945906 1.0013277474 -2.1592561695
O 2.2606079414 -0.2176652071 -1.3941521761
P 2.1602580228 -0.2498547081 0.1837504059
S 1.0964279993 1.1780766772 1.0224241388
O 3.6831986963 -0.2513408088 0.6306777123
C 4.0932240406 0.0124810316 1.9832858006
C 3.6480987615 -1.0791784198 2.9347363152
S 1.6019161204 -2.2674952651 0.425628501
C -0.1191955201 -2.1955018941 -0.129991605
S -1.2336125866 -1.4065671996 1.0891004768
P -2.1287609957 0.0263688564 -0.1637521595
S -1.1881148269 0.5724671315 -1.8009236833
O -2.6028542626 1.2197671633 0.7661311313
C -1.9610612269 2.5001063342 0.8958752244
C -3.0377814942 3.5618400541 0.9923404046
O -3.4938026737 -0.748037141 -0.390389117
C -4.5451138915 -0.2180560673 -1.2295668655
C -4.5038104414 -0.8611635707 -2.6019040062
H 4.4753031755 1.1517422288 -1.9666301611
H 3.6694401333 2.6322158106 -2.5240619992
H 3.5642144645 2.1518932203 -0.8233151807
H 2.3209927928 0.6559545681 -3.1937499685
H 1.4477981987 1.5979211397 -1.9590181518
H 5.180226681 0.0753263298 1.9194751694
H 3.6795430534 0.9794555588 2.2878106704
H 2.5613403795 -1.0810330884 3.016340498
H 3.9711125841 -2.0515468539 2.571561922
H 4.07417995 -0.8981242841 3.916315856
H -0.4327944784 -3.2278871003 -0.2565777523
H -0.1771812773 -1.6412563274 -1.0699084082
H -1.3395254457 2.4710638662 1.7937994135
H -1.312072123 2.6631555542 0.0290069661
H -3.6177434296 3.5962643066 0.0736006447
H -3.7014535038 3.3391535563 1.8227627531
H -2.5676211048 4.5260168623 1.1543862061
H -5.468651222 -0.4611473169 -0.7016385818
H -4.4395467043 0.8680389753 -1.2990057975
H -4.5672456145 -1.941465746 -2.5073879123
H -5.3404193854 -0.5006546286 -3.1918720858
H -3.5755177658 -0.6067777769 -3.1092868578
*
