  17
  -22.4907787800000       0.161198293851681      !md1
 C         -2.7364182537       -0.1785634385       -0.6881518614
 C         -1.9311075974        0.1997788363        0.5567871215
 C         -0.4579605178        0.0790347555        0.2965236325
 C          0.1601069843       -1.1687592838        0.2332908518
 C          1.5144709971       -1.2351939536       -0.0376453678
 C          2.2135783647       -0.0534549050       -0.2365345392
 C          1.5126914729        1.1376827244       -0.1498517162
 N          0.2162356183        1.2082799862        0.1085472283
 H         -2.5256418874       -1.2034215689       -0.9850159945
 H         -2.4797806354        0.4790728709       -1.5149694784
 H         -3.8002275495       -0.0858500020       -0.4870412394
 H         -2.2088631290       -0.4586900723        1.3819050420
 H         -2.1511071028        1.2299457252        0.8349486746
 H         -0.4169707982       -2.0653414015        0.3993047300
 H          2.0187776512       -2.1888219697       -0.0911924658
 H          3.2704138362       -0.0559869916       -0.4495478577
 H          2.0069487639        2.0900420398       -0.2920073622
  17
  -22.4907787600000       0.161194882304045      !mtd3
 C         -2.7366499367       -0.1807701934       -0.6874633155
 C         -1.9311071734        0.2011069172        0.5562479806
 C         -0.4579316324        0.0796780337        0.2962406141
 C          0.1595824353       -1.1683452949        0.2325310960
 C          1.5139733311       -1.2352634681       -0.0381905035
 C          2.2136587622       -0.0537208602       -0.2363044245
 C          1.5133045677        1.1376972430       -0.1491485127
 N          0.2168026779        1.2087167650        0.1090083142
 H         -3.8003387024       -0.0827063138       -0.4880566168
 H         -2.5298565808       -1.2080897458       -0.9783881360
 H         -2.4765372316        0.4710466649       -1.5178231175
 H         -2.2087954532       -0.4551570951        1.3831768105
 H         -2.1509304002        1.2320130555        0.8317651961
 H         -0.4179011544       -2.0648304591        0.3977347488
 H          2.0178635731       -2.1890526062       -0.0923245568
 H          3.2705151800       -0.0565836518       -0.4492425086
 H          2.0079785405        2.0899353620       -0.2908452024
  17
  -22.4907786900000       0.161182942454378      !gc
 C         -2.7306110743       -0.1842574928        0.7086703289
 C         -1.9355435751        0.2036416386       -0.5398596034
 C         -0.4603036380        0.0810373447       -0.2924639676
 C          0.1574247393       -1.1673371299       -0.2379357429
 C          1.5138293248       -1.2354191923        0.0221193505
 C          2.2152928902       -0.0546772103        0.2187903110
 C          1.5146328406        1.1372023029        0.1407262321
 N          0.2161562729        1.2093124677       -0.1069740425
 H         -3.7959352234       -0.0875018466        0.5179872062
 H         -2.4652466278        0.4651990712        1.5392128435
 H         -2.5196011233       -1.2121745910        0.9944680076
 H         -2.1576505031        1.2359042338       -0.8084947656
 H         -2.2200496785       -0.4485018688       -1.3677002153
 H         -0.4215324495       -2.0631201514       -0.4017193180
 H          2.0179070940       -2.1895228866        0.0692428394
 H          3.2737240553       -0.0585076377        0.4236548249
 H          2.0106623666        2.0888118813        0.2810615465
  17
  -22.4907786700000       0.161179531231634      !md5
 C         -2.7313402175       -0.1810184253        0.7088855370
 C         -1.9354213541        0.2016537160       -0.5406989420
 C         -0.4602658078        0.0798719133       -0.2923220838
 C          0.1580847530       -1.1681237138       -0.2366800967
 C          1.5146319360       -1.2352638852        0.0229842146
 C          2.2155427058       -0.0540345396        0.2184752557
 C          1.5141463468        1.1373683796        0.1400667536
 N          0.2156097788        1.2086130617       -0.1075161825
 H         -2.4674339457        0.4727628988        1.5364649227
 H         -2.5196287891       -1.2073081616        0.9998095891
 H         -3.7965721511       -0.0862344996        0.5166402321
 H         -2.1572651106        1.2328521183       -0.8134679489
 H         -2.2196011864       -0.4537312424       -1.3660446781
 H         -0.4204544014       -2.0643719758       -0.3994878342
 H          2.0192750841       -2.1890385066        0.0704900638
 H          3.2741058143       -0.0571217552        0.4227128811
 H          2.0096195350        2.0893605847        0.2802202417
  17
  -22.4907786100000       0.161169297995349      !md6
 C         -2.7314788640       -0.1849540231        0.7077970330
 C         -1.9354117730        0.2039216962       -0.5397681134
 C         -0.4602459688        0.0813347957       -0.2917324252
 C          0.1573378522       -1.1671352884       -0.2375280980
 C          1.5138234471       -1.2354079266        0.0219156503
 C          2.2155544996       -0.0547729867        0.2182577461
 C          1.5150156956        1.1371522936        0.1407224479
 N          0.2164064220        1.2094727405       -0.1063245282
 H         -2.5178681373       -1.2118414653        0.9951364079
 H         -3.7967346730       -0.0917564708        0.5149241646
 H         -2.4697286795        0.4663151692        1.5380547960
 H         -2.1575297427        1.2363158881       -0.8077591885
 H         -2.2191530422       -0.4475814163       -1.3683869020
 H         -0.4218053551       -2.0628084347       -0.4013113364
 H          2.0178985757       -2.1895368084        0.0683095930
 H          3.2741271006       -0.0588019613        0.4224215059
 H          2.0111044608        2.0886705110        0.2818578816
  17
  -22.4907784400000       0.161140307354704      !md4
 C         -2.7374628924       -0.1848210630       -0.6858457156
 C         -1.9310339260        0.2031119428        0.5553803753
 C         -0.4579279031        0.0810983271        0.2951513732
 C          0.1584900596       -1.1674288987        0.2306935631
 C          1.5130292881       -1.2353303450       -0.0391153588
 C          2.2139953787       -0.0542676429       -0.2354461544
 C          1.5146602934        1.1376780414       -0.1477173116
 N          0.2179674596        1.2096548810        0.1093772663
 H         -2.4848114480        0.4690505837       -1.5167672774
 H         -3.8011640236       -0.0947729289       -0.4833142676
 H         -2.5239455432       -1.2104178567       -0.9776058942
 H         -2.2076074128       -0.4496448471        1.3854716978
 H         -2.1512912780        1.2350676950        0.8266814700
 H         -0.4197200425       -2.0636733853        0.3947699947
 H          2.0159669779       -2.1896661995       -0.0934924129
 H          3.2710886911       -0.0579549459       -0.4471578289
 H          2.0101658442        2.0896259270       -0.2880377275
  17
  -22.4892780100000       3.293474480820843E-002 !gc
 C         -2.7429404033        0.7545395210       -0.3681128356
 C         -1.9568567460       -0.3620734168        0.3066233968
 C         -0.4686647732       -0.2208489437        0.1453778730
 C          0.3690224633       -1.3165309971        0.3592724552
 C          1.7352233681       -1.1569803584        0.2235362162
 C          2.2301800737        0.0920954507       -0.1241863767
 C          1.3205043301        1.1177497842       -0.3151616552
 N          0.0114716579        0.9719690262       -0.1845944089
 H         -2.4456535016        1.7173074799        0.0350859912
 H         -3.8082075314        0.6132234731       -0.2055976282
 H         -2.5481152014        0.7603933411       -1.4371288828
 H         -2.2622427097       -1.3321303749       -0.0920205535
 H         -2.1787411021       -0.3658778770        1.3780666101
 H         -0.0533519049       -2.2730733875        0.6268618277
 H          2.4045463077       -1.9895717511        0.3829974636
 H          3.2878034608        0.2633126480       -0.2440379178
 H          1.6473683011        2.1128372243       -0.5882205772
