! r2scan-3c def2/J RI DEFGRID2 scfconv6 printgap
%output
    printlevel normal
end
%cpcm
    smd true
    smdsolvent "water"
end
* xyz 0 1
C 3.3421266144 -0.2154022291 -2.5321833283
C 1.9208783625 0.2174178963 -2.2456322933
O 1.327899053 -0.5565466619 -1.1857274843
P 1.8387449075 -0.4759069727 0.3068643617
S 2.5073359705 1.2456353207 0.9772757869
O 2.9177121805 -1.6445296954 0.3178952469
C 3.7348093126 -1.9065929733 1.4753939107
C 4.9266998944 -2.7297092478 1.0300427084
S 0.2621068607 -1.3523713781 1.3865431457
C -0.5521759917 0.1251489583 2.0840340378
S -2.2815345572 0.2566944639 1.5919489574
P -1.9512902175 0.7832234862 -0.4425287508
S -0.570788292 2.1350674278 -0.7590546958
O -3.4196692665 1.0771509263 -0.9716171204
C -4.3882590647 1.9223510418 -0.3206012409
C -3.8619181352 3.3151911048 -0.046881681
O -1.5966639981 -0.5345891285 -1.2284824362
C -2.4381376839 -1.7188515971 -1.2159813246
C -1.577881699 -2.903839694 -1.6013394675
H 3.975525155 0.0140387897 -1.6759455767
H 3.3768639163 -1.2850218668 -2.7216209177
H 3.7124768598 0.3222518796 -3.3994357065
H 1.2571577762 0.0438860461 -3.0941348911
H 1.8793653146 1.2761116805 -1.9670757411
H 4.0443256015 -0.948444173 1.9068164621
H 3.1270696961 -2.447648592 2.2058084778
H 4.586574306 -3.6501589013 0.5647788877
H 5.5220096555 -2.1714095769 0.3131016585
H 5.5375788763 -2.966624121 1.8948090192
H -0.0012122287 1.0136357085 1.761880768
H -0.5497933177 0.0318281755 3.1668650077
H -5.2227624047 1.9416561103 -1.0236449977
H -4.693638266 1.4342935828 0.6088300813
H -3.5021401157 3.7732933277 -0.9653062461
H -4.6552365663 3.9248870856 0.3731896752
H -3.0346561151 3.2727532034 0.6604508628
H -2.8576736341 -1.8405318229 -0.2127435748
H -3.2461987889 -1.5546231332 -1.9310070077
H -1.1452776058 -2.7473473681 -2.5853153054
H -0.7713573169 -3.0309527456 -0.8832109969
H -2.1913591769 -3.7988292398 -1.6136511556
*
