! pbe def2-sv(p) def2/J RI DEFGRID1 loosescf d4 GCP(DFT/SV(P)) printgap
%output
    printlevel normal
end
* xyz 0 1
C 5.159427443 -3.3216043966 -0.2805620663
C 4.4734302123 -2.0171059361 0.0724726896
O 3.1694961711 -2.0203268076 -0.5451999042
C 2.4534937072 -0.9234954563 -0.4833175366
O 2.8257836784 0.1088171195 0.0425847912
C 1.0950966427 -1.0924150559 -1.1193495378
C 0.4601730764 0.2695027156 -1.3727055577
H 0.8232339932 0.7273913268 -2.2939222068
C 0.6799619295 1.2288351994 -0.2179974296
O 0.2324261922 1.0129970003 0.892767666
O 1.2634149366 2.3350255735 -0.5991112599
C 1.5032111971 3.3553495855 0.3932018844
C 0.2400418114 4.1487019331 0.6869351922
S -1.3471607989 0.1524867445 -1.5495463599
P -2.0234006642 -0.2486199578 0.440883728
S -1.1748036147 -1.6304906621 1.5447192201
O -2.3530315973 1.1247999058 1.1598596912
C -3.2681415477 2.0807739056 0.5885775216
O -3.522371251 -0.6766834757 0.0476408993
C -3.8107690944 -1.9457080784 -0.5454012094
H 5.2665571666 -3.4072832371 -1.3574733049
H 6.140645866 -3.3459354036 0.1812653599
H 4.5709234475 -4.1588973381 0.081681553
H 5.0264565535 -1.1477235617 -0.2964534317
H 4.3384237696 -1.9066213451 1.1527862548
H 0.4972813725 -1.6636840406 -0.3977117147
H 1.1688500267 -1.677464579 -2.0346117601
H 1.8815038872 2.8688248354 1.2964204542
H 2.2767725585 3.9787612734 -0.054316435
H 0.4783888509 4.9569643745 1.3702039723
H -0.1651935283 4.5618986084 -0.2327566191
H -0.5034818576 3.5039985052 1.1507535701
H -2.9777957691 2.3148901846 -0.4362733498
H -3.192294406 2.9606904112 1.2227269948
H -4.2788362434 1.6778321666 0.6045941004
H -3.5255697571 -1.9349882076 -1.5967386701
H -4.8839039831 -2.0820431576 -0.4395531715
H -3.2723168455 -2.7352544728 -0.0183768161
*
