! pbe def2-sv(p) def2/J RI DEFGRID1 loosescf d4 GCP(DFT/SV(P)) printgap
%output
    printlevel normal
end
* xyz 0 1
C 4.1119801518 -1.2700378077 -2.1574853734
C 4.1644266219 0.2221672845 -1.9134023482
O 3.9900590987 0.5698303126 -0.5200450153
P 2.8095992348 0.1253380715 0.4269516534
S 2.6935671321 1.2895876058 1.9956455484
O 3.1963268032 -1.3837187585 0.7530164138
C 2.6721945359 -2.0969542232 1.8842634865
C 1.2036863506 -2.4319424556 1.7186380059
S 1.0870852915 0.0615515629 -0.8479004908
C 0.0105094512 1.2051256496 0.0550191905
S -1.2814679121 0.3645951485 1.0075624168
P -2.6507931494 0.1750090997 -0.617953262
S -1.9418029241 -0.4130252389 -2.3420606546
O -3.3115532614 1.6041012799 -0.7432937169
C -4.0108191341 2.2607469504 0.3471410406
C -3.2240469208 3.4677943763 0.8185881763
O -3.8305619994 -0.6948277593 -0.0035268479
C -3.8458274883 -2.1336265901 -0.0744527386
C -2.6694983153 -2.7556332672 0.6487362633
H 4.8277663931 -1.7821204647 -1.5199834451
H 3.1133614835 -1.6484369348 -1.9447885199
H 4.3476844235 -1.4683570317 -3.198561121
H 3.3930164143 0.7366077486 -2.4927063685
H 5.1448055432 0.6374643415 -2.1518342571
H 3.2864762882 -2.9975020118 1.9308019826
H 2.8311728349 -1.491605909 2.7825739261
H 1.033951244 -2.9186609115 0.7611988068
H 0.893889345 -3.0967397036 2.5182911956
H 0.6038702317 -1.5242665624 1.7692023771
H -0.457492873 1.8587844562 -0.678600492
H 0.6173885935 1.767811832 0.7684294525
H -4.9732356425 2.5549906348 -0.0738080022
H -4.1669321533 1.5446094173 1.1561164793
H -3.8149687563 4.0115773571 1.5487337295
H -2.2885076493 3.1621327939 1.2815986047
H -3.00566804 4.1218057978 -0.0213864081
H -4.7963467551 -2.4046376634 0.3871731343
H -3.8454679332 -2.4238711529 -1.1292488429
H -2.6116457522 -2.3870413846 1.6699904158
H -2.7840461757 -3.8346202211 0.659505352
H -1.7449244782 -2.5048985931 0.1299732508
*
