! pbe def2-sv(p) def2/J RI DEFGRID1 loosescf d4 GCP(DFT/SV(P)) printgap
%output
    printlevel normal
end
* xyz 0 1
C 5.3325703886 -0.5970447741 -0.191054289
C 4.8506106632 -1.3015788554 -1.4488242625
O 3.4954088544 -1.765344898 -1.286651251
C 2.5110120953 -0.9422899853 -1.5828439619
O 2.6527479718 0.1808122068 -2.0123948641
C 1.159764533 -1.5963992748 -1.3515778228
C 0.2059766876 -0.5783963504 -0.7432409663
H 0.2509011388 0.3544739364 -1.3218442348
C 0.5406482273 -0.2227728831 0.6899873011
O -0.3268561739 -0.0222008493 1.5176251886
O 1.8234402379 -0.1532703255 0.911571512
C 2.2655064985 0.3130662644 2.2072050559
C 2.3239973147 1.8309465642 2.2312456682
S -1.5163746037 -1.1683191654 -0.7626663456
P -2.4329188221 0.5765200474 0.064110411
S -1.4954767148 2.2950634188 0.0224931391
O -3.6943951265 0.7092153435 -0.899520974
C -4.6462355991 -0.3505046999 -1.0942885216
O -3.191390721 0.1565238916 1.405085788
C -2.7639087779 0.3394879403 2.7543138358
H 5.2599446622 -1.2657206714 0.6620354687
H 6.3658983343 -0.2933742124 -0.3219879376
H 4.7243497131 0.2854618554 -0.0071261937
H 5.427596017 -2.2048417325 -1.6473174891
H 4.8876777972 -0.6269537511 -2.3087318775
H 1.2789781963 -2.4699514208 -0.7128534133
H 0.7654055385 -1.9151076527 -2.3185546292
H 1.5752810583 -0.0637896651 2.9661016155
H 3.2536783583 -0.1291146476 2.3318456188
H 2.6860049265 2.163014881 3.1983266899
H 2.9891603672 2.1953947154 1.452805059
H 1.3337001004 2.2496289147 2.0589296305
H -5.2963030957 -0.0055383012 -1.8942431684
H -5.2108579016 -0.5136056484 -0.1782921837
H -4.1302259562 -1.2664001595 -1.3852887659
H -3.6771191686 0.4435361508 3.3365226393
H -2.1508108488 1.2363128012 2.8396315561
H -2.1916897194 -0.5275516116 3.0777060351
*
