! pbe def2-sv(p) def2/J RI DEFGRID1 loosescf d4 GCP(DFT/SV(P)) printgap
%output
    printlevel normal
end
* xyz 0 1
C 5.236829821 0.6615575208 -1.0951985243
C 4.7565649043 0.9250005062 0.318271523
O 3.794503586 -0.0627426168 0.735062682
P 2.2295488263 0.1543248165 0.5912354751
S 1.5357663595 1.8587038904 1.2672395017
O 1.6455913927 -1.0653287306 1.3993289743
C 2.214332287 -2.3967209283 1.4747750745
C 2.2233356167 -3.1047547513 0.1368034259
S 1.8174278707 -0.1398287045 -1.4817331346
C 0.0854876235 0.323360224 -1.4192894091
S -0.9305343336 -1.0226925145 -0.6947873035
P -2.5942925983 0.1837187344 -0.1842735608
S -4.2046369748 -0.7335288596 0.446049257
O -2.7821456873 1.1253844636 -1.4519259563
C -3.7321122976 0.8061334788 -2.4869043113
C -3.3008541027 -0.3887960959 -3.3145162881
O -1.9866997024 1.2922219326 0.7807335489
C -2.1231670843 1.2076484925 2.2091987696
C -1.4309662069 -0.0098047345 2.7879477432
H 4.4162330084 0.7541678803 -1.8029347258
H 6.0065076161 1.3841883534 -1.346661912
H 5.6502305385 -0.3403043133 -1.1673836263
H 4.3063800936 1.9185626205 0.4109202108
H 5.5727303584 0.8300390366 1.0369944395
H 3.2225070119 -2.3120059688 1.8837167644
H 1.5616635677 -2.9011668725 2.1889069297
H 2.5247080289 -4.1365404389 0.2884634635
H 1.2297284725 -3.0851781062 -0.3068856904
H 2.9244700843 -2.6278692556 -0.5443952058
H -0.2310412948 0.498652847 -2.4437737728
H -0.0303763494 1.2192293434 -0.8055886443
H -4.7024937994 0.6141167251 -2.0184842132
H -3.7832112473 1.7170690738 -3.0847960109
H -3.2526387774 -1.2776350111 -2.6857609987
H -4.0285077317 -0.5563026862 -4.102236492
H -2.3251997704 -0.2181644187 -3.7622411835
H -1.6687786824 2.132733041 2.5681586721
H -3.189895337 1.1919602537 2.4525925313
H -1.8860231362 -0.9191444662 2.3947246877
H -0.3735385009 -0.0044741844 2.5316344563
H -1.5342371483 -0.0002909136 3.8681396596
*
