! r2scan-3c def2/J RI DEFGRID2 scfconv6 printgap
%output
    printlevel normal
end
* xyz 0 1
C 5.2151028634 -2.3772152797 -1.6021121182
C 4.1787858074 -1.2745595761 -1.6827137206
O 3.2449472036 -1.4644821352 -0.600207555
P 2.3016438442 -0.2931452757 -0.0958270428
S 3.1949948882 1.423970067 0.2397167757
O 1.5841962242 -0.9712816305 1.1422454276
C 2.0621850422 -0.7884252537 2.4915552144
C 3.3778448179 -1.5029675956 2.7135574711
S 0.7444513756 -0.2743911515 -1.521256203
C 0.0532951053 1.3354165597 -1.0471824733
S -0.6529350961 1.3405421003 0.619699594
P -2.5563791722 0.4645900027 0.1790762052
S -3.1105955317 0.6500552255 -1.6967006804
O -3.511512413 1.1266666794 1.2486401387
C -4.1468293875 2.3984479604 1.0043685422
C -5.5959766217 2.1913010445 0.6091258435
O -2.5720598539 -0.9647644379 0.8517998903
C -1.7142847066 -2.0747145003 0.5369801273
C -1.9925102332 -2.6559384282 -0.8351820352
H 5.7615666725 -2.3120070971 -0.6655593344
H 4.7283160363 -3.346289636 -1.6594242337
H 5.9096555932 -2.2735284763 -2.4292058439
H 3.6232151108 -1.316500581 -2.6233451854
H 4.6357592569 -0.2843756617 -1.5803134117
H 2.1631473113 0.2853036822 2.6803181778
H 1.2640326595 -1.1978400119 3.112016299
H 3.285552921 -2.551736608 2.444396087
H 4.1512672587 -1.047081734 2.0964682677
H 3.6633080371 -1.4183811866 3.7573925304
H -0.7268285098 1.5646580067 -1.7748209035
H 0.8456688272 2.0827704478 -1.0543605678
H -4.0627307874 2.9441220574 1.9458391418
H -3.6048605948 2.9364784917 0.2205806806
H -6.1069748025 1.6044925195 1.3669121142
H -6.0827414265 3.1559700233 0.5085646629
H -5.6511815629 1.6637422858 -0.3407343206
H -0.6696080982 -1.7602618757 0.6236622747
H -1.9397919679 -2.7975567765 1.3237494338
H -1.7233606559 -1.9462703615 -1.6154511764
H -1.4020332101 -3.5571041304 -0.9658073541
H -3.0477870345 -2.8979178121 -0.9325662259
*
