! pbe def2-sv(p) def2/J RI DEFGRID1 loosescf d4 GCP(DFT/SV(P)) printgap
%output
    printlevel normal
end
* xyz 0 1
C 4.679733365 0.0243371612 -2.5655585523
C 3.6450657334 -1.0346174515 -2.2364500968
O 3.3121939771 -0.9884788498 -0.8355726895
P 1.9516175726 -0.3663471953 -0.2913152451
S 1.4388849894 1.2872222896 -1.2206303194
O 2.2118668538 -0.3059333693 1.2653970155
C 2.7486723889 0.8676756744 1.9087650673
C 4.1793064989 1.1283552693 1.4922194486
S 0.7108437349 -2.0845590587 -0.3868869183
C -0.3996658333 -1.9535017641 1.0537060534
S -2.1207411376 -1.6071398544 0.6230701034
P -1.9756553476 0.5062949545 0.4465397849
S -0.7203867353 1.340011865 1.6927470801
O -3.4882044352 0.9638649105 0.6053303594
C -4.1695701332 0.8784377036 1.8747838849
C -5.4230992731 1.7243901712 1.7858561501
O -1.6907243278 0.8555151918 -1.0569924862
C -2.4834507192 0.3427184908 -2.1619663167
C -1.6559760201 -0.6273056746 -2.9802982823
H 4.9782335459 -0.0779540387 -3.6037616297
H 4.2565550828 1.0153719788 -2.4147501497
H 5.5500921878 -0.0918949835 -1.9261159644
H 4.0326657085 -2.0407627731 -2.4050862792
H 2.7391911913 -0.8858132688 -2.8304693976
H 2.1047695224 1.7203436002 1.6691008083
H 2.6638158373 0.640963979 2.9724954357
H 4.2129976734 1.3880080739 0.4350728655
H 4.5762789584 1.9551462337 2.0727384728
H 4.7845416534 0.2410220315 1.6580711945
H -0.0332233565 -1.1726688558 1.7214747362
H -0.3944333472 -2.9272148057 1.5356404351
H -4.4062509369 -0.1721553342 2.0623957669
H -3.4940452001 1.2403521449 2.6567162306
H -5.1611878821 2.7590914893 1.5828292183
H -6.0616529123 1.359771994 0.9866775856
H -5.957257989 1.6679076997 2.7285067345
H -3.3851542356 -0.1303552842 -1.7667524135
H -2.7518102987 1.2257261339 -2.7433451554
H -2.2096732471 -0.9037046721 -3.8715873175
H -0.7202526473 -0.1547519353 -3.2704540905
H -1.4305911042 -1.5248386188 -2.4078077404
*
