  13
        -17.19110228
 C          2.0958002897        0.0000064146        0.0123802813
 N          0.6587020123        0.0003592393       -0.0174794476
 C         -0.1318074990        1.1022655350       -0.0050763645
 C         -1.4423801102        0.7033498339        0.0066301511
 C         -1.4419703236       -0.7039325666        0.0067427950
 C         -0.1311993711       -1.1020761890       -0.0050975575
 H          2.4622959776       -0.0226046317        1.0416913868
 H          2.4727294790       -0.8758045659       -0.5132927292
 H          2.4712551078        0.8986109182       -0.4739863182
 H          0.2881912069        2.0888030564       -0.0100403956
 H         -2.3039225825        1.3427346870        0.0116297039
 H         -2.3031696709       -1.3438277535        0.0117111491
 H          0.2895352381       -2.0882926260       -0.0104569384
