! pbe def2-sv(p) def2/J RI DEFGRID1 loosescf d4 GCP(DFT/SV(P)) printgap
%output
    printlevel normal
end
* xyz 0 1
C 1.5358516794 2.5114706388 1.5792868161
C 1.5051821237 2.289978065 0.0793171798
O 1.1608824614 0.9320000231 -0.259493294
P 2.1893133625 -0.2416961045 0.0557381956
S 4.0788826345 0.2693094353 0.0756583317
O 1.7128923638 -1.216125637 -1.1003877357
C 2.1882672124 -2.571202105 -1.2148848083
C 3.4341162871 -2.6479495871 -2.0750196323
S 1.4938901292 -1.1490037122 1.8390114087
C -0.2568617607 -1.4098516374 1.4047284492
S -1.2846424976 0.0768346416 1.52432925
P -1.9036289494 0.297532503 -0.5091269865
S -1.292683711 -1.0866958355 -1.7540809802
O -1.5189909728 1.7650238566 -0.9508816985
C -2.3081890458 2.944356199 -0.6559152001
C -2.3787473791 3.2402817938 0.8271714318
O -3.4931291626 0.4179884129 -0.4211895057
C -4.3615232733 -0.7246975624 -0.4714886556
C -4.1983331868 -1.6336161105 0.7299684044
H 2.3468127678 1.9311140224 2.0196102304
H 1.7083413326 3.5638242347 1.7817659157
H 0.5984769151 2.2012097423 2.0358389894
H 2.4813725286 2.5179446693 -0.3603399097
H 0.7329163488 2.8837452622 -0.4104980351
H 2.3791262936 -2.9745437203 -0.2140672189
H 1.3544909021 -3.1071101554 -1.6758000933
H 3.2376703419 -2.2148494243 -3.0519793128
H 4.2507902748 -2.1012425966 -1.6082745108
H 3.7225198911 -3.6874858365 -2.1926217352
H -0.6190492421 -2.1298922021 2.1335385411
H -0.3301489659 -1.7954007616 0.383752465
H -1.7926878496 3.7356973118 -1.2029208658
H -3.3071865273 2.8005085022 -1.0716155338
H -1.3837874911 3.382432766 1.23941789
H -2.9588885441 4.1453438454 0.9786859949
H -2.8624292346 2.417557209 1.3512370936
H -5.3606032768 -0.288278428 -0.5114661414
H -4.1573602031 -1.2729047705 -1.3965721933
H -3.226751734 -2.1241256753 0.6948723465
H -4.2765705179 -1.063901303 1.6523379627
H -4.9732126736 -2.3931963855 0.7090331748
*
