  20
        -27.12390106
 C         -1.2368590347        0.9631399201       -1.2563337450
 C         -1.0134016806        0.1128076001       -0.0000067981
 C         -1.9497417686       -1.0945299593        0.0000408554
 C         -1.2363056271        0.9628095106        1.2566730610
 C          0.4294406097       -0.3691010984       -0.0002108017
 O          0.7797535094       -1.5307893792       -0.0001047382
 O          1.2936166959        0.6400655577       -0.0001886046
 C          2.6841570529        0.3130062017        0.0000768027
 H         -1.0628450609        0.3711368607       -2.1521964523
 H         -2.2614836636        1.3241268092       -1.2726424723
 H         -0.5617906704        1.8144389110       -1.2627601863
 H         -2.9836516704       -0.7626307150       -0.0018766021
 H         -1.7755584186       -1.7090745720        0.8799043927
 H         -1.7729459260       -1.7110919863       -0.8778948137
 H         -1.0596726446        0.3712005426        2.1522781716
 H         -0.5627873362        1.8153286125        1.2618868441
 H         -2.2615553878        1.3218894188        1.2747257940
 H          2.9315301282       -0.2661310383       -0.8904569034
 H          2.9287678313       -0.2767913963        0.8843614979
 H          3.2087315168        1.2632004555        0.0064746638
  20
        -27.12382114
 C         -1.2333144868        0.9642792965       -1.2561162355
 C         -1.0116348204        0.1121405312       -0.0006457120
 C         -1.9538034372       -1.0907660247       -0.0004845450
 C         -1.2303287464        0.9619130337        1.2568440527
 C          0.4294033955       -0.3782243865       -0.0022454781
 O          0.7668782327       -1.5439750382        0.0022996889
 O          1.2924828927        0.6302928211       -0.0014185250
 C          2.6921582593        0.3387919532        0.0010009526
 H         -0.5551977403        1.8131522256       -1.2627027835
 H         -1.0628696250        0.3721097796       -2.1525305226
 H         -2.2566036396        1.3291883087       -1.2706511753
 H         -2.9860410522       -0.7536620592        0.0017865126
 H         -1.7797066445       -1.7081734145        0.8773462006
 H         -1.7829756039       -1.7060726428       -0.8804964414
 H         -1.0504534352        0.3701640744        2.1516882597
 H         -0.5572679452        1.8147501917        1.2598465245
 H         -2.2556433669        1.3207217208        1.2784622411
 H          3.1581576384        1.0467996530        0.6816159473
 H          3.0792365311        0.4703878251       -1.0090183568
 H          2.8574592969       -0.6876859885        0.3302926522
  20
        -27.12350382
 C         -1.4404352083        0.6344186193       -1.3698974000
 C         -1.0102557416        0.1312668330        0.0164477049
 C         -1.8487775933       -1.0890860914        0.4089189191
 C         -1.1607544855        1.2432193183        1.0522947107
 C          0.4372214925       -0.3145343444       -0.1289848920
 O          0.7812466362       -1.3198845222       -0.7181130026
 O          1.3034108870        0.5208026451        0.4266664075
 C          2.6922113130        0.2033166837        0.3109691528
 H         -0.8523015891        1.5017757924       -1.6609620780
 H         -1.2997973663       -0.1478510009       -2.1124020106
 H         -2.4897286331        0.9146679236       -1.3470385791
 H         -1.5891336861       -1.4234479364        1.4106624992
 H         -1.6638276909       -1.9059081008       -0.2846668556
 H         -2.9047322664       -0.8360544086        0.3861868289
 H         -0.8092500575        0.9107418590        2.0255331698
 H         -0.5889072873        2.1201766902        0.7626927729
 H         -2.2085010133        1.5189261253        1.1348624755
 H          3.0003591524        0.2567248096       -0.7338972094
 H          2.8770176855       -0.8052730830        0.6829128164
 H          3.2126521341        0.9441608291        0.9096503287
  20
        -27.12342030
 C         -1.1457948801        1.2842645787       -1.0089813273
 C         -1.0079716988        0.1387742694       -0.0091495377
 C         -1.8058056351       -1.0831972329       -0.4789949009
 C         -1.5000480953        0.5783335248        1.3770040574
 C          0.4404036152       -0.2969997822        0.1630761485
 O          0.7790498423       -1.2530772519        0.8325600864
 O          1.3009772418        0.4747144334       -0.4830361684
 C          2.6947438172        0.1707106131       -0.3834536417
 H         -0.7701883671        0.9896615673       -1.9852030286
 H         -2.1940549986        1.5540484103       -1.1044747676
 H         -0.5886250153        2.1557293215       -0.6765615944
 H         -1.6416873675       -1.9177031274        0.1986865754
 H         -1.4930167997       -1.3820232271       -1.4767858264
 H         -2.8655590999       -0.8465406725       -0.5000079353
 H         -1.3531334125       -0.2235423616        2.0967713060
 H         -0.9526253328        1.4545982878        1.7164718337
 H         -2.5574127811        0.8224341676        1.3303673255
 H          2.8337776583       -0.9029162396       -0.2505300436
 H          3.1182774627        0.7001577597        0.4701047813
 H          3.1463180976        0.5150322012       -1.3094994684
