  44
        -57.46573712
 C         -3.4156793696        0.5597114820        0.6970333280
 N         -2.5253291569        1.6935467715        0.5528310566
 C         -2.8280864260        2.7116184583        1.5392581434
 C         -2.5378201872        2.2308540246       -0.7990241002
 C         -1.7099430135        1.3723230019       -1.7660805169
 C         -0.2787481757        1.3503861660       -1.3380747521
 C          0.3492522338        0.3152560834       -0.7823173524
 C         -0.2916818359       -1.0007041347       -0.5830592825
 C         -0.6317047024       -1.8167437234       -1.6527828977
 C         -1.2274845451       -3.0465046859       -1.4277949090
 C         -1.4842237508       -3.4631619632       -0.1328945848
 C         -1.1415818663       -2.6514683717        0.9361747558
 C         -0.5458013488       -1.4193827486        0.7213633909
 C         -0.1336229098       -0.5106368244        1.8370234569
 C          1.3853602623       -0.5460585534        2.0176261159
 C          2.2283375142        0.0118212909        0.8969148140
 C          1.7596349902        0.4185156006       -0.3548796508
 C          2.6657012318        0.9397544715       -1.2809636846
 C          4.0096857722        1.0600564836       -0.9946076951
 C          4.4776385090        0.6529148025        0.2438483104
 C          3.5894927246        0.1410618286        1.1680179203
 H         -3.1240387508       -0.2278008034        0.0065631846
 H         -4.4684135835        0.8268803631        0.5070119968
 H         -3.3320641350        0.1700087141        1.7095507127
 H         -2.0938063278        3.5121323158        1.4664826233
 H         -2.7626003277        2.2696330521        2.5319712426
 H         -3.8347378971        3.1417416746        1.4139461164
 H         -3.5691693233        2.3281464378       -1.1842221499
 H         -2.0968407175        3.2302819266       -0.7651573217
 H         -2.1127865049        0.3614175077       -1.8084955737
 H         -1.7894759441        1.8181599507       -2.7605100266
 H          0.2417947694        2.2960331798       -1.4227321731
 H         -0.4239969088       -1.4876392464       -2.6610827201
 H         -1.4910434738       -3.6785854446       -2.2631173513
 H         -1.9506084122       -4.4211468852        0.0442111570
 H         -1.3447044281       -2.9776338450        1.9463779730
 H         -0.4613869968        0.5068145480        1.6128296525
 H         -0.5997562969       -0.8303285598        2.7708565238
 H          1.6399466417        0.0056743367        2.9269983074
 H          1.6911070238       -1.5860104635        2.1786982407
 H          2.2951936464        1.2394014574       -2.2505330300
 H          4.6884978030        1.4629904613       -1.7313734165
 H          5.5264990782        0.7357762277        0.4867874403
 H          3.9543938845       -0.1700609719        2.1371887518
