! pbe def2-sv(p) def2/J RI DEFGRID1 loosescf d4 GCP(DFT/SV(P)) printgap
%output
    printlevel normal
end
* xyz 0 1
C 5.3809385351 0.2822854147 -1.0177415806
C 4.9471032113 -0.2829876886 0.3181884528
O 3.6322703124 -0.8781501918 0.2657697635
P 2.3182643938 -0.1224473455 -0.1898364831
S 2.0103223015 -0.0275632074 -2.1303051902
O 2.4796375375 1.242421454 0.6166505697
C 1.5359195091 2.3258645828 0.6379000496
C 1.7000163118 3.2409999635 -0.5589749072
S 0.920669162 -1.2660901869 0.9000486988
C -0.1333087553 -1.904197927 -0.4524228123
S -1.8716006856 -1.9264749773 0.0048239445
P -2.168300225 0.1828466355 0.1484345588
S -1.3994740316 1.2217586972 -1.3240401779
O -1.5814241036 0.659766209 1.5353716618
C -2.195251941 0.472117966 2.8352512372
C -2.2701027555 -0.9846281976 3.2410595389
O -3.7319781172 0.3362475933 0.3750010082
C -4.6735111767 0.4151944712 -0.7106849066
C -4.7315466285 -0.863175403 -1.5206869165
H 5.3320730863 -0.4844363286 -1.7876518381
H 4.7235060601 1.1010197676 -1.3084841431
H 6.3984504679 0.6525279823 -0.9412914856
H 4.9402409179 0.4926147053 1.0870320016
H 5.5855318232 -1.1114791281 0.6295570503
H 0.5192681659 1.9248120187 0.6819870941
H 1.7594025032 2.8488933001 1.5700308518
H 1.4410154731 2.7154027222 -1.4760857895
H 1.0323411219 4.0896737699 -0.4500107226
H 2.7257684764 3.5930130946 -0.6281100121
H 0.1423169347 -2.9354986381 -0.6577021058
H 0.0192739381 -1.2724645235 -1.3337137589
H -1.5396263666 1.0378843407 3.4989736972
H -3.1871998319 0.9264559864 2.812042455
H -1.2933102027 -1.4534408327 3.1414501402
H -2.591240067 -1.0445134168 4.2762966545
H -2.9827282888 -1.5191378735 2.6172659622
H -5.6225510713 0.6203129648 -0.2131091613
H -4.3952833032 1.2609948201 -1.3468273082
H -4.8872810365 -1.7194457295 -0.8694865625
H -5.5470046815 -0.7976387585 -2.2338927202
H -3.7990128991 -1.0023441713 -2.06548449
*
