! pbe def2-sv(p) def2/J RI DEFGRID1 loosescf d4 GCP(DFT/SV(P)) printgap
%output
    printlevel normal
end
* xyz 0 1
C 4.1471955645 -1.7813612606 -1.7862460634
C 4.6175356247 -1.1121762543 -0.5106200659
O 3.5385985395 -0.8659325523 0.4066383702
P 2.3929231632 0.1959332459 0.1123158488
S 3.0035277074 1.840736387 -0.7561180897
O 1.8091736017 0.4925034471 1.5458788679
C 0.9991835902 -0.3886553757 2.3608156224
C 1.649193135 -1.7337704809 2.6016920376
S 0.8907209668 -0.9098070921 -0.9289424891
C 0.0694043693 0.5204905592 -1.6605285551
S -0.8022793049 1.5366058034 -0.438969673
P -2.5315389759 0.3237570089 -0.3155179193
S -3.1922920394 -0.4896913968 -1.9645691861
O -3.6356915614 1.2790538668 0.3010771467
C -3.4203023478 2.3210051395 1.2805480426
C -2.8612434415 1.7915623255 2.5844841649
O -2.1137016597 -0.7167909967 0.8263340023
C -2.6343233826 -2.0628975353 0.8903086453
C -1.6590801393 -3.0524304848 0.2863702666
H 3.5341045156 -1.0924952181 -2.3652250163
H 5.0098927445 -2.0648358176 -2.3806020204
H 3.5602317742 -2.6670109261 -1.5568769836
H 5.1062902655 -0.1587189902 -0.7345863183
H 5.2964177405 -1.7534341472 0.0532036535
H 0.8802474369 0.1738736106 3.2883904579
H 0.0268622308 -0.5073632544 1.8747300793
H 2.640919805 -1.6016913704 3.0261393044
H 1.035814506 -2.3050128052 3.2920868742
H 1.7405056546 -2.2818637226 1.6657949491
H -0.6452455444 0.1458869298 -2.3947265006
H 0.8164192469 1.1683450851 -2.1202766614
H -2.7516539596 3.0680495507 0.8446116233
H -4.415405254 2.7492376204 1.4121327522
H -2.812799508 2.6037813362 3.3031907958
H -3.4992936163 1.0037296858 2.9761331149
H -1.8593273115 1.3962660647 2.4307664326
H -2.785321194 -2.2489713027 1.9548313779
H -3.5947642516 -2.0999731442 0.3685568238
H -2.0563813731 -4.0556340451 0.4009912303
H -1.5216704063 -2.844454719 -0.7726892716
H -0.6948749927 -2.9868494801 0.7811956008
*
