! pbe def2-sv(p) def2/J RI DEFGRID1 loosescf d4 GCP(DFT/SV(P)) printgap
%output
    printlevel normal
end
* xyz 0 1
C 4.2883834772 0.7561706314 -2.2629353256
C 4.5855144598 0.1641500332 -0.9015076525
O 3.6162704617 0.5401853012 0.0946535201
P 2.0441946559 0.3385709197 -0.0217766637
S 1.0248506079 1.6142049384 -1.1063819051
O 1.6139877734 0.4523263977 1.4904945131
C 2.2351340369 -0.3400053081 2.5408327945
C 1.1647079661 -0.7793395654 3.5182308465
S 1.8757347571 -1.7101156722 -0.5743519223
C 0.1247117507 -1.7017866499 -1.0017311168
S -0.944352373 -1.4008930434 0.4423114811
P -2.1696844227 0.1760599907 -0.2959268366
S -2.1997373336 0.4340726648 -2.2324059727
O -1.7693559178 1.458873552 0.5275256376
C -1.8435291838 1.4933063581 1.9762393494
C -0.9391200049 2.6060202479 2.4615479435
O -3.5872794521 -0.1559568657 0.356458652
C -4.5664553563 -0.994576185 -0.2821905505
C -4.0987522132 -2.4278633139 -0.4307144377
H 5.0889597078 0.5031293544 -2.9504483435
H 3.3500333529 0.3600753872 -2.649372029
H 4.1982415868 1.8379460658 -2.1956757269
H 5.5260253499 0.543487681 -0.4981938275
H 4.6146106947 -0.9276962127 -0.952792563
H 2.7334267083 -1.2008263539 2.0863839473
H 2.9790347283 0.3007879015 3.0166541048
H 0.4355529249 -1.4127759899 3.0185524376
H 1.6317490088 -1.339726163 4.3216541206
H 0.6577527736 0.0871522852 3.932910758
H -0.093373819 -2.6922044041 -1.393297646
H -0.0776876592 -0.9271756465 -1.7469604126
H -2.8861518913 1.6685804412 2.248671473
H -1.525844667 0.5201116742 2.3633228724
H 0.0867435857 2.4082128706 2.1598040034
H -1.2488027618 3.5523848402 2.0270488335
H -0.9958613021 2.6677549735 3.5435916856
H -5.4348992128 -0.9194515657 0.3737818668
H -4.7991247049 -0.5642830221 -1.2609881122
H -4.9226329587 -3.0346890182 -0.7922188263
H -3.2840078193 -2.4774906768 -1.1516978966
H -3.7537538381 -2.8166078941 0.5240083358
*
