! pbe def2-sv(p) def2/J RI DEFGRID1 loosescf d4 GCP(DFT/SV(P)) printgap
%output
    printlevel normal
end
* xyz 0 1
C 5.3103900241 -1.1592667007 -2.0604604893
C 4.6208402821 -0.8367700293 -0.7482768817
O 3.2071477022 -1.0647780222 -0.9098713122
C 2.4934812101 -1.3821554093 0.1509509958
O 2.943981938 -1.5223401934 1.2654191512
C 1.0295569775 -1.578883432 -0.203566156
C 0.4860903307 -0.3583418378 -0.9469956163
H 1.0695483717 -0.1922096174 -1.8569202045
C 0.5377097511 0.8878138677 -0.0870057957
O -0.4545864721 1.5367199873 0.1799493119
O 1.7462045938 1.153778356 0.3246859491
C 1.937712136 2.2821154119 1.2081235365
C 2.0996766919 3.569990979 0.4187798976
S -1.2264860191 -0.5912628536 -1.5036668878
P -2.3389566498 -0.1861915409 0.279258683
S -1.5851985311 -0.4014414645 2.0787740112
O -3.2581717408 1.0892312009 -0.0062640001
C -3.0375456554 2.4510873161 0.3550331322
O -3.4548612326 -1.3146110323 0.1386833312
C -4.2970199979 -1.4624136069 -1.0169123874
H 4.9094561262 -0.5371736831 -2.8547148372
H 6.3742047891 -0.9713147587 -1.9606983459
H 5.1557717672 -2.2024880323 -2.3198786716
H 4.7545220099 0.2134187197 -0.4733642035
H 4.9831895563 -1.4638939023 0.0717020801
H 0.4725211934 -1.7560759301 0.7193798425
H 0.9402352454 -2.4522713101 -0.8515858871
H 1.0818875574 2.3361861575 1.886554422
H 2.8403156446 2.0312657798 1.7659121796
H 2.9231506784 3.4797832218 -0.2840391947
H 1.1867800522 3.7938146053 -0.1278276384
H 2.3049245916 4.3824449804 1.1077802421
H -4.0279522817 2.8980660085 0.4113345555
H -2.433049712 2.9409444423 -0.4058001809
H -2.5343521208 2.5120616305 1.319437289
H -4.9409659687 -0.5912991643 -1.1209940734
H -4.8845447701 -2.3569726626 -0.8266413029
H -3.6857141672 -1.5866488714 -1.9111931106
*
