! wb97x-v def2-tzvp def2/J RIJCOSX DEFGRID2 scfconv7 GCP(DFT/TZ) printgap
%output
    printlevel normal
end
%cpcm
    smd true
    smdsolvent "water"
end
* xyz 0 1
C -0.6922858616557422 -0.5991624425878944 -0.3000111107242148
C 0.6843176482221783 -0.5942305175201642 0.3286418797230093
O 1.4919610731355466 0.5052136624910496 -0.13161331742603904
O -1.4841391923874043 0.5318601143550309 0.10807672091540749
H -1.2322608316328783 -1.4926939680249554 0.03083366237908865
H -0.6075828805261193 -0.6291037010907432 -1.3947851761442829
H 1.211531694192097 -1.5096887609228675 0.03982626413688196
H 0.5996774386073066 -0.5720017295962723 1.423599774318099
H 1.1476073233203479 1.309955962540347 0.2767459265298075
H -1.1291116841223015 1.3115781863839515 -0.33793861650321005
*
