! pbe def2-sv(p) def2/J RI DEFGRID1 loosescf d4 GCP(DFT/SV(P)) printgap
%output
    printlevel normal
end
* xyz 0 1
C 2.3132637961 2.3544731306 -0.9208599809
C 2.1371424434 0.9548990197 -1.4728564197
O 2.8753173342 -0.0307036181 -0.7359734241
P 2.6261643634 -0.4821225078 0.7703661603
S 3.0510822275 0.7818770897 2.2035607982
O 3.5756354974 -1.7325491515 0.8653281969
C 3.826723146 -2.6962740261 -0.18702906
C 2.5770761258 -3.4399934965 -0.6076292487
S 0.6270935059 -1.249019502 0.851065172
C -0.1397045712 0.0179514006 1.8806177799
S -0.7845362368 1.4415353014 0.9498732942
P -2.0996805823 0.4141400297 -0.364352445
S -1.3594416296 -0.4111304384 -1.987428192
O -3.2041196958 1.5145492497 -0.6652319816
C -2.974800444 2.5750223387 -1.6143236368
C -4.3173260204 3.1816702008 -1.9688107039
O -2.8315838578 -0.5488966822 0.6507406992
C -3.4856854782 -1.7578470998 0.2059968707
C -4.7394519214 -1.4480691494 -0.5831524837
H 1.8390926249 3.0631152188 -1.5922709489
H 1.8553938984 2.4417792791 0.0629436901
H 3.3704892101 2.5921339837 -0.8330515762
H 2.5422264954 0.8741270756 -2.4835115662
H 1.0809969517 0.6670964437 -1.4914131138
H 4.2730854524 -2.169817603 -1.0324442696
H 4.5596901602 -3.3668612742 0.2640572201
H 2.1000555575 -3.9001089338 0.254231164
H 1.8669485873 -2.7618214386 -1.0793982123
H 2.8472043798 -4.2120951413 -1.321464456
H 0.6094925492 0.4245308465 2.5647393086
H -0.9573760478 -0.4538631893 2.4181925986
H -2.31387561 3.3114404163 -1.1486595634
H -2.47823413 2.1534000724 -2.4950726438
H -4.1643190564 4.0049387074 -2.6587506901
H -4.9548576308 2.4364035349 -2.4357076516
H -4.8049715216 3.5497963097 -1.0709480275
H -2.7768843141 -2.3343422466 -0.3970863418
H -3.7070235235 -2.292042896 1.1306799756
H -5.3992597202 -0.8075226747 -0.0040671138
H -4.4741967519 -0.9363918673 -1.5075366519
H -5.251726688 -2.3737294439 -0.8258758304
*
