! pbe def2-sv(p) def2/J RI DEFGRID1 loosescf d4 GCP(DFT/SV(P)) printgap
%output
    printlevel normal
end
* xyz 0 1
C 4.6627601864 0.2792571917 -1.8627473309
C 4.4482772174 0.8269358187 -0.4671019795
O 3.411035961 0.120854953 0.2365407282
P 1.8841929759 0.2138107582 -0.1938226122
S 1.3345701498 2.0115009451 -0.7258741382
O 1.1239593565 -0.3331705066 1.0807545904
C 1.6718151546 -1.4019567688 1.9003830964
C 2.3440444789 -0.8276178359 3.1286015845
S 1.7172024495 -1.3651126278 -1.6214433962
C -0.0592752095 -1.7258201186 -1.5085180804
S -1.1338714872 -0.270652339 -1.6349280596
P -1.9304577431 -0.2052397739 0.3471352472
S -1.7354949885 -1.8544596604 1.3769447539
O -3.4418427656 0.2007309076 0.0533201602
C -4.3547435499 -0.7323522981 -0.5604311543
C -5.7544791156 -0.1681194881 -0.4289290442
O -1.415673366 1.0736957794 1.1007451078
C -1.7776518646 2.4301050915 0.7267784945
C -1.1200368726 3.3609871633 1.7217203864
H 3.7849004888 0.4745152218 -2.4777120805
H 5.5217632296 0.7672691133 -2.3117591099
H 4.8324127378 -0.7939076122 -1.8282195146
H 4.1796845912 1.8874177989 -0.505712264
H 5.3295018267 0.6883910743 0.1606705015
H 0.8086240849 -2.0142295597 2.1710104308
H 2.3704447057 -1.9881228651 1.2989431342
H 3.194805356 -0.2141237634 2.8434337699
H 1.6375117171 -0.2161017783 3.6836502854
H 2.682787792 -1.6444325626 3.7581574462
H -0.282248095 -2.2350618192 -0.5660490726
H -0.2747086668 -2.3680577773 -2.3591998978
H -4.0676390048 -0.8518144809 -1.6088097421
H -4.2600660298 -1.696466742 -0.0500954969
H -5.8158879081 0.7950520584 -0.9271450221
H -6.4577610321 -0.8554780753 -0.887140699
H -6.0086182075 -0.0405545418 0.619586315
H -1.4158705143 2.6161165304 -0.2880542303
H -2.8652986579 2.511394447 0.7516145242
H -0.0390798405 3.2727077675 1.6495059476
H -1.4089119748 4.3818355119 1.4942249853
H -1.4304719331 3.1093094543 2.7317842004
*
