! pbe def2-sv(p) def2/J RI DEFGRID1 loosescf d4 GCP(DFT/SV(P)) printgap
%output
    printlevel normal
end
* xyz 0 1
C 3.4540451273 -2.1713392078 -1.7649170876
C 4.0144580869 -0.8441374857 -1.293907165
O 3.4051092009 -0.4040336703 -0.0712402736
P 1.9237745679 0.1822558497 0.0441756847
S 1.2828268183 0.9173293511 -1.6587532194
O 2.0664286566 1.175196164 1.2675093616
C 2.2771076238 2.5888958844 1.0998009804
C 3.6482916616 2.8926844861 0.5322785926
S 0.9120416759 -1.2881317868 1.1903951251
C 0.1346460621 -2.3625510429 -0.0529312208
S -1.0296411948 -1.5219952335 -1.1766073571
P -1.9858615286 -0.1914664624 0.1531694981
S -1.1732771481 1.4783013291 0.814712607
O -2.3934729008 -1.2377380496 1.2664442209
C -2.7516508885 -0.8459925855 2.60705857
C -4.0986852926 -0.1557722956 2.6440512579
O -3.3612074342 0.0783016074 -0.5987377083
C -3.538968375 1.1682218298 -1.5170181304
C -2.7115224912 0.987942657 -2.7736340642
H 2.4240697951 -2.0370912189 -2.0947741747
H 4.0414365217 -2.5316289235 -2.6034780645
H 3.4912807226 -2.9018085368 -0.9602994419
H 3.8634416905 -0.0754363481 -2.0583155495
H 5.0735046066 -0.9197109695 -1.0441536228
H 1.485185293 2.9818414375 0.4529780251
H 2.1529744587 2.9915928753 2.1061565314
H 3.7213657405 2.5090503699 -0.4849112038
H 3.7993897573 3.9673990957 0.5160392966
H 4.4168033891 2.4255201353 1.1427114786
H -0.4072950002 -3.1098971397 0.5228926618
H 0.8844691077 -2.8299156814 -0.6871128512
H -2.7594497225 -1.785593475 3.1606900879
H -1.9669687556 -0.1903256541 2.9988334961
H -4.8526671049 -0.7799847007 2.1720227726
H -4.3779671568 0.0360916183 3.6752357958
H -4.04202583 0.7918457822 2.1096463366
H -4.6082984973 1.1598378976 -1.7317960324
H -3.2662272495 2.0990265426 -1.0081523624
H -2.916630504 0.021344927 -3.2270443419
H -2.946574506 1.7775108912 -3.480014443
H -1.6482616301 1.0405987863 -2.53378378
*
