! pbe def2-sv(p) def2/J RI DEFGRID1 loosescf d4 GCP(DFT/SV(P)) printgap
%output
    printlevel normal
end
* xyz 0 1
C 2.1031308825 -1.2503672703 -3.0127054736
C 3.3491244714 -0.5548493236 -2.5061825433
O 3.4688352202 -0.6372244062 -1.0731985244
P 2.3876089534 0.0010034226 -0.099646482
S 1.6738887365 1.7431378038 -0.640047407
O 3.1661355995 0.1118181349 1.2698196646
C 4.1358776207 -0.8505641343 1.7657790736
C 3.4924949534 -1.8713348568 2.6834956228
S 0.9985074987 -1.5868396439 0.1668515196
C 0.0384625616 -0.8621870697 1.5378627195
S -1.7376753034 -1.0720728228 1.2959138332
P -2.046740078 0.7041375946 0.1607523245
S -1.4393332494 2.3056079314 1.1160737349
O -3.5923357287 0.6561827517 -0.1830542102
C -4.583550301 0.8929033784 0.8391534701
C -5.8992512365 1.1906025751 0.1496508571
O -1.3631783925 0.5194306412 -1.2437306862
C -1.9260975467 -0.2041867501 -2.3710628466
C -2.0675650924 -1.6873943022 -2.1019325496
H 2.1058436882 -1.2510698711 -4.0978735983
H 2.0636282634 -2.2737261313 -2.6474451172
H 1.2223727935 -0.7140089163 -2.660794446
H 3.3410717159 0.5022348548 -2.7886868726
H 4.2598139653 -1.0327829668 -2.8697605423
H 4.6234655499 -1.3280265088 0.9152644156
H 4.8550735608 -0.2327312741 2.3060533195
H 4.2746335742 -2.475115438 3.1332861387
H 2.9379665655 -1.3682492901 3.471741927
H 2.8209895707 -2.5230421403 2.1302419304
H 0.2658897283 0.2056399624 1.6061519869
H 0.2938350419 -1.3817726767 2.457492551
H -4.6488173277 -0.0041969204 1.46009669
H -4.2509699036 1.7331120176 1.4575183691
H -6.6621599948 1.3625657419 0.901653085
H -5.8034781281 2.0768724004 -0.4715339663
H -6.1913681361 0.3509730338 -0.4740885228
H -2.889453822 0.2464490226 -2.6138433905
H -1.2111795802 -0.002485636 -3.1708435457
H -2.3787652663 -2.1792560705 -3.018133638
H -1.1207724373 -2.1107325681 -1.7741431486
H -2.8158483916 -1.8641121268 -1.3325020388
*
