! wb97x-v def2-tzvp def2/J RIJCOSX DEFGRID2 scfconv7 GCP(DFT/TZ) printgap
%output
    printlevel normal
end
%cpcm
    smd true
    smdsolvent "water"
end
* xyz 0 1
C -4.001592188090287 -0.6991186384896403 0.0008905652219007525
C -4.00158926681102 0.6991303772702928 0.0013361007444389833
C -2.8024954582894592 1.392792960625858 0.0008587840601488347
C -1.5830345382793034 0.702841501826853 6.0405533570291644e-05
C -1.5830373203434445 -0.702838284084214 -0.00027265361416600595
C -2.8025010176195746 -1.3927855011906838 7.668391340300275e-05
C -0.3187792534823817 -1.4610928133778276 -0.0007308331395298903
O -0.3647055731748734 -2.7201286939129385 -0.0013086460810880014
C 0.9236112322145861 -0.7227113954732209 -0.0002446233422253209
C 2.156995696071369 -1.4236037795551217 0.000281903690917612
C 3.374182331182734 -0.6778113353312819 0.0010185964333501807
C 3.374185056835145 0.6777948219232384 0.0008819978437172723
C 2.157001377190832 1.4235922966845629 5.1205523354108614e-05
C 0.923614141678151 0.7227054049585334 -0.00028219103955119684
C -0.3187736290036877 1.4610918756346034 -0.0004990240898222924
O -0.36469543969622165 2.7201275329432244 -0.0009867227468256811
N 2.25066729288455 2.766677597055773 -0.0003394516024456134
N 2.2506543446994556 -2.7666895300279566 0.00030838762704770854
H -4.941242390351294 -1.2419321100907352 0.0012240102770498626
H -4.941237106965139 1.2419475059883514 0.0020598557064383815
H -2.7948540013293024 2.4768351408483626 0.0011584752813107336
H -2.7948629276737513 -2.4768278191424633 -0.0002266952912482027
H 4.313080157860067 -1.2241829945829186 0.0016546449601380503
H 4.31308517837612 1.224162788856038 0.0013884842615457373
H 3.1595061976678176 3.201344254564684 0.0003329573046451706
H 1.3944379718999953 3.3062812569786226 -0.0007184502918649512
H 1.3944207417039307 -3.3062860399416554 -0.0006818951734542005
H 3.159491055336442 -3.201360731286179 0.00029907910828775425
*
