! wb97x-v def2-tzvp def2/J RIJCOSX DEFGRID2 scfconv7 GCP(DFT/TZ) printgap
%output
    printlevel normal
end
* xyz 0 1
C 0.7391072845845351 -0.6339842666503244 -0.00670428273955867
C -0.6161013269715586 0.03979516326472475 0.40978695881731964
F -1.1260482623433612 -0.7218088287040829 1.4040271107644589
Cl -1.7569450104321922 0.04739932638527673 -0.9568007615279751
Cl -0.33163841375839925 1.6850414499694504 1.0272930864945609
F 1.5340056722218618 -0.6817227872716095 1.0756815966529873
F 0.48102770063367356 -1.8968262566159262 -0.38629889163777714
Cl 1.5654121196640016 0.23445500576521897 -1.3226986303744102
*
