! pbe def2-sv(p) def2/J RI DEFGRID1 loosescf d4 GCP(DFT/SV(P)) printgap
%output
    printlevel normal
end
* xyz 0 1
C 3.0779458758 -3.2848232321 1.2115517246
C 2.9288877561 -1.7803918192 1.3457002076
O 2.6016383307 -1.2339178678 0.0531641928
C 1.6202540178 -0.3822223986 -0.0648781466
O 0.9782615282 0.090448964 0.8614058996
C 1.3813095147 0.0280843728 -1.5005480828
C 0.2778371646 1.0737121452 -1.5511138422
H 0.2956694715 1.6004990508 -2.5094772892
C 0.4190027802 2.107726545 -0.4391195279
O -0.5135235341 2.5367962957 0.201580231
O 1.6623466242 2.5290394697 -0.3530267742
C 1.9918494315 3.5545413191 0.6071175864
C 2.692372015 4.6980762537 -0.1054675063
S -1.4119424021 0.3895302547 -1.5123917773
P -1.5859610067 -0.9622656998 0.1181907432
S -0.4694896016 -2.5698080836 0.140994076
O -1.6693252446 -0.2313778007 1.5144232402
C -2.6055846915 0.8215303387 1.8143736634
O -3.1340616507 -1.3266845639 -0.0940514571
C -3.5679950011 -2.1449636284 -1.185409408
H 3.3650028559 -3.70325182 2.1702404893
H 2.132700914 -3.7223373641 0.8981233228
H 3.8369311407 -3.5169372737 0.4711662863
H 3.8666843458 -1.3121319556 1.6555696843
H 2.133882593 -1.5146718216 2.0487474703
H 1.1223888039 -0.8550464658 -2.0875689493
H 2.3118994377 0.4404068837 -1.8938405806
H 1.0701847907 3.8824830977 1.095354639
H 2.6457729404 3.083539516 1.3452631041
H 3.5748001253 4.330363495 -0.6204169962
H 2.0253365373 5.1570186228 -0.8300205777
H 2.9881945228 5.442788636 0.6259302149
H -3.5960062745 0.560390199 1.4474220518
H -2.258317139 1.7506652082 1.3630321909
H -2.6003686986 0.8993407014 2.8984051479
H -2.9050821959 -3.0051012453 -1.2933014223
H -3.5754956205 -1.5609228321 -2.1046963927
H -4.5723440931 -2.4700443838 -0.9259398527
*
