! pbe def2-sv(p) def2/J RI DEFGRID1 loosescf d4 GCP(DFT/SV(P)) printgap
%output
    printlevel normal
end
* xyz 0 1
C 2.4956072457 0.6463354963 -3.0068113017
C 2.2281629909 -0.7762549734 -2.5587274673
O 1.4709495424 -0.8245231891 -1.3289869066
P 2.0566022587 -0.4348245636 0.0923159696
S 2.4847135567 1.4340543155 0.5263254925
O 3.3281722793 -1.3937325629 0.1404869646
C 4.3836354125 -1.2225424491 1.1007341691
C 3.926723944 -1.5367028982 2.5105169811
S 0.6133088235 -1.3724388168 1.3145190699
C -0.1225515344 0.0859183262 2.1281182233
S -1.9244081684 0.133798812 1.9917134408
P -2.1028784212 0.3431683572 -0.095570966
S -0.8026316348 1.4854295753 -1.0301767977
O -3.6369509773 0.7058842743 -0.2946535903
C -4.3532453668 1.7407938318 0.4039230564
C -3.6560760483 3.0841574689 0.346493717
O -2.0848284204 -1.1722586905 -0.5621900451
C -1.7875204792 -1.5668341892 -1.913093533
C -2.9137967581 -1.1990289931 -2.8555725852
H 2.931950767 0.6373506389 -4.0003908856
H 1.5661300908 1.2127079387 -3.0243389286
H 3.1807530192 1.1405548264 -2.3203346254
H 3.1589894029 -1.3299120521 -2.4156100412
H 1.5902628122 -1.3027529243 -3.2714422557
H 5.1588031963 -1.91197436 0.7636471398
H 4.7446543763 -0.1911030984 1.0362454219
H 3.2078271356 -0.7878777802 2.8404171922
H 3.4567414305 -2.5161984886 2.5467098342
H 4.7826545494 -1.5203521911 3.1773471699
H 0.3155462917 0.9861966081 1.6860716193
H 0.0862865913 0.0320300459 3.1936184135
H -5.3189696925 1.7705872083 -0.1039204657
H -4.4877089556 1.4184217359 1.4400775532
H -2.7018683673 3.0354824681 0.8702846449
H -3.4664482201 3.3715530803 -0.6852292251
H -4.2801108396 3.8351566826 0.820051531
H -0.8524415131 -1.0852017817 -2.2166921593
H -1.6416736536 -2.645862552 -1.8457402009
H -3.0200655038 -0.115050376 -2.8903307302
H -2.6896053148 -1.5679247418 -3.8515171568
H -3.8483771699 -1.6307871689 -2.5078666474
*
