! pbe def2-sv(p) def2/J RI DEFGRID1 loosescf d4 GCP(DFT/SV(P)) printgap
%output
    printlevel normal
end
* xyz 0 1
C 4.0740667655 0.0379547665 2.3246021265
C 4.8496176849 -0.1710490808 1.0420231327
O 4.1098008593 -0.948288889 0.0664136305
P 2.7353595177 -0.5458296842 -0.5837023842
S 2.4304838481 -1.4967627717 -2.2686643837
O 2.9035391451 1.0364028572 -0.7097008743
C 1.9743392193 1.8897267358 -1.3972294821
C 1.0847445733 2.6179110792 -0.4077215106
S 1.2578338556 -0.9079396086 0.9178403215
C -0.0322936753 -1.6193184924 -0.1263675188
S -0.8139424455 -0.4050586253 -1.2365675279
P -2.2783788994 0.3353740493 0.1042841314
S -3.2052585436 1.9476516001 -0.5045933569
O -1.4445005816 0.4557732593 1.441389581
C -1.8340828997 1.3563320337 2.5006138075
C -3.1020381554 0.8892407387 3.1818887339
O -3.176621611 -0.9480291778 0.4286764353
C -4.1414921709 -1.4422135737 -0.5175460505
C -5.5176279894 -0.8707875113 -0.2353725067
H 4.7068083617 0.5514531298 3.041956108
H 3.1892385463 0.6433120571 2.1359039331
H 3.7611766485 -0.9165153785 2.7399599093
H 5.7459474749 -0.7711388375 1.2054713686
H 5.1176921797 0.7828735695 0.5844750651
H 2.5949822613 2.5928587676 -1.9561280051
H 1.3858323368 1.2934053177 -2.1024870388
H 1.6879868298 3.2046067497 0.2789490666
H 0.4113270908 3.275321865 -0.9495954774
H 0.4894308844 1.9104869192 0.1667638853
H -0.7814618593 -2.0399563162 0.5391858673
H 0.4070592143 -2.3751689297 -0.7761759959
H -0.9782387423 1.3464470508 3.1764792916
H -1.969584714 2.3557318994 2.0756015093
H -3.3239738204 1.5419752916 4.020108749
H -3.9305919816 0.9251082457 2.4754941474
H -2.9853937777 -0.1311124383 3.5368943963
H -3.8142084322 -1.1909687054 -1.5321234003
H -4.129799446 -2.5267039942 -0.3907384934
H -5.8159953356 -1.1020615029 0.7833163757
H -5.5101507348 0.2093072555 -0.3650091695
H -6.2333258846 -1.3039048635 -0.926622929
*
