! pbe def2-sv(p) def2/J RI DEFGRID1 loosescf d4 GCP(DFT/SV(P)) printgap
%output
    printlevel normal
end
* xyz 0 1
C 3.9977268241 -1.6471659921 -2.2646284475
C 4.358478356 -0.9144954571 -0.9880554962
O 3.2273972678 -0.7773581323 -0.1155881873
P 2.0278683665 0.23503679 -0.4286142568
S 2.6191402847 1.8797250528 -1.3125813253
O 1.3433073851 0.2845462437 0.9985704314
C 2.005913239 0.7695143838 2.1883978814
C 1.9322653513 2.2794030096 2.2887184908
S 0.5894723327 -0.9037948188 -1.4705386334
C 0.1753093083 -2.1194859208 -0.1915798134
S -0.9805082436 -1.5166163438 1.0920661631
P -1.9652822851 0.1121261467 0.1281095121
S -1.0900574529 1.8376445536 -0.1996719179
O -3.2486062289 0.2408411709 1.0634017658
C -3.2800916451 1.1018595824 2.2146174476
C -2.2729074983 0.6850195778 3.2663258769
O -2.5460330935 -0.4993006308 -1.2039751631
C -3.3959187302 -1.6742796318 -1.2592101486
C -4.8556349433 -1.2750224357 -1.3284710916
H 4.8927808259 -1.7907670111 -2.8610726542
H 3.5547251579 -2.6134719966 -2.038837345
H 3.2829884715 -1.0571161675 -2.8381717924
H 4.741802743 0.0854048689 -1.2157940653
H 5.0866524949 -1.4689136002 -0.3944801712
H 1.4571501393 0.2874724207 3.0006741318
H 3.0411300412 0.4207405212 2.1828735696
H 2.5193270821 2.7426302644 1.4981143675
H 0.9019367244 2.6114298966 2.1807422942
H 2.3164882074 2.5962841559 3.2528256905
H 1.0807768769 -2.432534524 0.3245143091
H -0.2875976631 -2.9528734727 -0.715065358
H -3.0859823635 2.1263871212 1.8817375587
H -4.305051567 1.0162924081 2.577846674
H -2.4117061697 -0.3598240722 3.5331954124
H -1.2644835867 0.8181309655 2.8750478975
H -2.393136515 1.3059279235 4.1481838746
H -3.0812629786 -2.192234878 -2.1671820144
H -3.2021530798 -2.2969572172 -0.3815926872
H -5.1484763924 -0.7591505088 -0.4179735826
H -5.0211470801 -0.6132013664 -2.1742456112
H -5.4618333826 -2.1677350894 -1.4469269072
*
