! r2scan-3c def2/J RI DEFGRID2 scfconv6 printgap
%output
    printlevel normal
end
* xyz 0 1
C 0.9292622795 -2.8376959324 1.3337662264
C 1.9292821249 -1.7742901448 1.7410315238
O 1.5833267178 -0.4948852821 1.1703381289
P 2.2697501763 0.070602155 -0.1610263918
S 2.9461932946 -1.2490184631 -1.4291677016
O 3.449153146 1.0112416763 0.3320168091
C 3.2386916799 2.1037506035 1.2606465529
C 4.6002347847 2.6084822376 1.690945585
S 0.7867978919 1.4337307481 -0.8013963814
C -0.0198910163 0.3410924318 -1.9999029587
S -0.7713531931 -1.1241325479 -1.2460946218
P -2.2229168381 -0.1078275505 -0.108048241
S -3.0483353064 1.4925755427 -0.8932641888
O -1.4240760702 0.1029313821 1.2413131516
C -1.8437775914 1.037649193 2.2610505393
C -0.6396482261 1.8369838457 2.716776785
O -3.2599231721 -1.2343605121 0.3274623118
C -4.4211279718 -1.5616915607 -0.4553400232
C -4.0551121736 -2.2289932733 -1.7653212005
H -0.0813234 -2.5045315855 1.5582203863
H 1.0022643422 -3.033602004 0.2660810033
H 1.1381851855 -3.752665098 1.8786762525
H 2.9396091155 -2.0496950741 1.4236900596
H 1.9143353429 -1.6089989932 2.8200770584
H 2.6677333159 2.8799859958 0.7441556118
H 2.6576102794 1.7355925328 2.109833644
H 5.1640480792 2.938217824 0.8232464945
H 4.4711474222 3.4410585947 2.374768546
H 5.1546238837 1.8163880991 2.1861190037
H 0.7164906626 -0.0256083766 -2.7140941362
H -0.7878926401 0.9410234303 -2.4876753614
H -2.617578483 1.6928494802 1.8470046967
H -2.2661310394 0.4466150818 3.0763319478
H -0.2631263799 2.4450302838 1.8976108366
H -0.9289245072 2.4818681923 3.5400847897
H 0.1460063736 1.1612576012 3.0430298754
H -4.9936772347 -2.2279887994 0.191182435
H -4.9850602769 -0.6410512114 -0.6364539461
H -3.402450148 -3.0799362653 -1.5870214106
H -4.9593290715 -2.56474037 -2.2628077471
H -3.5382656625 -1.5215089067 -2.4124481932
*
