! r2scan-3c def2/J RI DEFGRID2 scfconv6 printgap
%output
    printlevel normal
end
%cpcm
    smd true
    smdsolvent "water"
end
* xyz 0 1
C -2.394973442 0.0294134203 -4.16135e-05
C -0.8991255158 0.0256777785 2.18639e-05
C -0.1784291187 1.2200385832 6.33972e-05
C 1.2029806219 1.1718171397 7.32994e-05
C 1.8276235118 -0.0675604937 -2.69226e-05
C 1.0272446734 -1.1970033742 2.34828e-05
N -0.2965236368 -1.1582570872 6.01351e-05
H -2.767742898 0.5448113027 -0.8827756363
H -2.7634929747 -0.9911880544 0.003324079
H -2.7679691904 0.55096814 0.8789197055
H -0.7018221378 2.1636803461 -0.0002556622
H 1.7854089881 2.0814406328 -0.0005600473
H 2.9022215663 -0.1541517488 -0.000389933
H 1.4592466021 -2.189418224 -0.0004507278
*
