! pbe def2-sv(p) def2/J RI DEFGRID1 loosescf d4 GCP(DFT/SV(P)) printgap
%output
    printlevel normal
end
* xyz 0 1
C 0.7194562699 -0.4309738645 3.5064105205
C 1.7108446861 0.207150675 2.5554612552
O 2.1345536455 -0.8111080708 1.6123668359
P 2.6797074787 -0.4958713918 0.1711769231
S 3.1538337545 -2.1752504725 -0.7134275463
O 3.8182279016 0.5667103149 0.4819423767
C 4.4147480722 1.4588949087 -0.4779593689
C 4.9617385014 0.7349757881 -1.6900273375
S 1.1910279808 0.6754710072 -0.8281946228
C 0.115683076 -0.7199040048 -1.2291031041
S -1.0511712063 -1.0984383124 0.092261649
P -2.4867959612 0.3868191638 -0.4787971754
S -2.7948469077 0.5499583148 -2.4045757915
O -1.9621288846 1.7647265107 0.0713205968
C -1.6970456775 2.0377398559 1.4696557818
C -2.8655298473 2.7659320755 2.1013898145
O -3.7135908913 0.0755888151 0.4783522732
C -4.3234618558 -1.2175489774 0.650401475
C -4.7786861762 -1.8296486511 -0.6573306161
H 0.3736430289 0.3131670885 4.2165560272
H -0.1261740312 -0.8308334366 2.9519867528
H 1.1936817523 -1.2481934511 4.0416975727
H 2.6002706113 0.5641133368 3.0773057683
H 1.2631144131 1.0351989623 1.997620958
H 3.6607949514 2.19358562 -0.7741523269
H 5.2096307267 1.9485709532 0.0873585142
H 5.4717334071 1.4434607644 -2.3348014405
H 5.6587075453 -0.0423296769 -1.385580516
H 4.1506212262 0.2684473892 -2.2478872716
H 0.7342274725 -1.6047287981 -1.3931095121
H -0.4460589871 -0.4564834954 -2.1277617095
H -1.4935479759 1.0953827197 1.98488222
H -0.8003704575 2.6606473528 1.4585647724
H -2.6173346946 3.0134932565 3.1286559479
H -3.0744667477 3.6796148579 1.5519748271
H -3.7530553177 2.1391812179 2.0856669363
H -3.604083952 -1.8704563153 1.1523643332
H -5.1685526942 -1.0174073375 1.3113945038
H -3.9204336652 -2.0404523638 -1.2941234161
H -5.3063277749 -2.7568798032 -0.4581989123
H -5.4378508087 -1.1463449086 -1.1876437603
*
