! pbe def2-sv(p) def2/J RI DEFGRID1 loosescf d4 GCP(DFT/SV(P)) printgap
%output
    printlevel normal
end
* xyz 0 1
C 5.7878381019 -0.3587495814 0.2748164896
C 4.445715533 -0.7844205814 -0.2854153408
O 3.4282554656 0.0264686669 0.3340973293
P 1.97168638 0.1562172706 -0.2911359362
S 1.9534348218 0.5268359931 -2.2199092263
O 1.3214850143 1.2122285623 0.6879598113
C 1.366777936 2.6302935024 0.434828625
C 2.7798798086 3.1687042608 0.4847287282
S 1.0869051282 -1.6491727388 0.3262471521
C -0.1323291955 -1.9144224952 -1.0086836622
S -1.8202449849 -2.0379739388 -0.3912569958
P -2.0680667916 0.0058487361 0.1498756909
S -1.4398639935 1.3188700391 -1.1592603405
O -1.3141465494 0.2257348357 1.5155895599
C -1.5445036962 -0.5758239317 2.7018845697
C -2.4662062742 0.1472155533 3.6617877053
O -3.5910649201 0.063843118 0.5925696508
C -4.6966474495 -0.4592664736 -0.1693638886
C -4.7477428431 0.085722148 -1.5807479028
H 5.7899532557 -0.4729182597 1.354826436
H 6.5656196111 -0.9808757689 -0.155428123
H 5.9842325272 0.6812180427 0.0299291774
H 4.232231811 -1.8323108532 -0.057307148
H 4.3952392911 -0.6368024493 -1.369655064
H 0.9056863498 2.8221811021 -0.5400804539
H 0.7366611641 3.0510355342 1.219908333
H 3.3611184027 2.7516122875 -0.3370785206
H 2.7548817225 4.2494827952 0.386420404
H 3.2515919378 2.8970402852 1.4254828202
H 0.0893487691 -2.8673020389 -1.4820919233
H -0.0529769486 -1.0898837996 -1.7233016208
H -1.9595429477 -1.5429164819 2.4038428588
H -0.5504315716 -0.7213689777 3.1299769261
H -2.58204578 -0.451745463 4.5596252113
H -2.0461810126 1.1137007659 3.926222384
H -3.4393772073 0.3027641448 3.2037427307
H -4.6168266078 -1.5496363342 -0.1784959075
H -5.5718188297 -0.1539840107 0.4068428393
H -4.76153079 1.1731537364 -1.5684321946
H -3.8721873585 -0.2383630066 -2.1418193213
H -5.6407340998 -0.2803021637 -2.0769245881
*
