! pbe def2-sv(p) def2/J RI DEFGRID1 loosescf d4 GCP(DFT/SV(P)) printgap
%output
    printlevel normal
end
* xyz 0 1
C 5.3235814044 -1.4573698888 -0.8967119467
C 4.0051284851 -0.9903444089 -1.4800720736
O 3.1465027656 -0.6139076321 -0.3884819805
P 1.8299241566 0.2549687629 -0.6311111919
S 2.0886166423 1.8075665762 -1.7924036793
O 1.3735509146 0.477438576 0.8657075566
C 1.6599836093 1.7036863884 1.5688807768
C 3.142439408 1.8637388237 1.8226053036
S 0.4417526933 -1.1868452757 -1.3252553736
C 0.2916336117 -2.2037133277 0.1657619056
S -0.7901489848 -1.5127400298 1.4714441831
P -2.0334466152 -0.1975291974 0.3932940704
S -1.3899690256 1.5455624217 -0.2748137109
O -3.2677353609 -0.0365361246 1.3827320584
C -3.344614786 1.0028198558 2.3711635945
C -2.3574432246 0.7768880838 3.4980518486
O -2.6028658518 -1.2067381138 -0.6843543591
C -3.1845541777 -0.7706548125 -1.9286844501
C -4.5188083721 -0.089011838 -1.7111382441
H 5.1581892518 -2.2942000591 -0.2245755538
H 5.9780576439 -1.7680955472 -1.7042982379
H 5.7947623732 -0.6493368111 -0.3446755131
H 3.5131134216 -1.7858843092 -2.0479238674
H 4.1370582925 -0.1210651953 -2.1332991578
H 1.2637490065 2.5396973414 0.9830384807
H 1.0954165539 1.6072550284 2.4979243914
H 3.6666566812 1.9659158596 0.872896685
H 3.3104070491 2.7562326105 2.4169320922
H 3.5277536251 0.9950341906 2.3497207873
H 1.2724718497 -2.3412154286 0.61683932
H -0.1336360103 -3.1487085082 -0.1642819463
H -3.1567012365 1.9634373709 1.8794224933
H -4.3766464252 0.9595616709 2.7213512501
H -2.5006441787 -0.2083556813 3.9340738271
H -1.3404916727 0.8411331163 3.1110766144
H -2.4959323721 1.5369265736 4.2601566881
H -2.4781306589 -0.0975820635 -2.42658429
H -3.2841551598 -1.6903633253 -2.5063998634
H -4.3727788909 0.8403290606 -1.161555175
H -4.9698939372 0.1367098005 -2.6722743393
H -5.1802035466 -0.7350426872 -1.1400622567
*
