! r2scan-3c def2/J RI DEFGRID2 scfconv6 printgap
%output
    printlevel normal
end
%cpcm
    smd true
    smdsolvent "water"
end
* xyz 0 1
C -0.718752131 -0.5982354427 -0.261790037
C 0.7109413537 -0.5953529876 0.2899007018
O 1.4634077176 0.5281609671 -0.1048352878
O -1.4561775103 0.552602347 0.079362941
H -1.2271006609 -1.5048551463 0.094034173
H -0.7011592671 -0.6139361903 -1.3546343572
H 1.2064204324 -1.5246515931 -0.0225386418
H 0.6944256391 -0.5595776695 1.3821157339
H 1.4482544838 0.6012411081 -1.0691593465
H -1.4425341949 0.6693705422 1.0395442737
*
