! pbe def2-sv(p) def2/J RI DEFGRID1 loosescf d4 GCP(DFT/SV(P)) printgap
%output
    printlevel normal
end
* xyz 0 1
C 1.8337271784 -3.7948617603 -0.2156499428
C 1.3465946327 -2.4200593425 0.1971094642
O 2.4345259859 -1.4961961706 0.0376976931
P 2.2760989369 0.0352375512 -0.3694335334
S 0.967044229 0.3639016737 -1.7894326311
O 3.7285293635 0.4122695317 -0.8282605211
C 4.8621570469 0.6869886485 0.0335776733
C 5.1747048776 -0.4581833847 0.9710260117
S 1.9884627128 1.1245178858 1.4416271685
C 0.2264515159 1.4691706166 1.3164898019
S -0.8001687731 -0.0270360129 1.5675011343
P -2.1752856441 0.1869455572 -0.0188851633
S -2.2659600104 1.925751549 -0.9268801973
O -3.5545053789 -0.2933766253 0.613446968
C -4.4772092496 0.6107636491 1.2431075911
C -3.9146848494 1.2150561767 2.5137762077
O -1.7945009291 -1.0903715544 -0.8752489473
C -2.1578309635 -1.2286006513 -2.2624838122
C -3.6579085816 -1.2768160222 -2.4585042296
H 2.1362397084 -3.785333725 -1.2594020513
H 2.6828737422 -4.0858259252 0.3955089614
H 1.0302503134 -4.5115245494 -0.0810112589
H 1.0399989257 -2.4032184537 1.2468152291
H 0.5046473297 -2.0949983906 -0.4239994746
H 5.672005271 0.8625816918 -0.6761050904
H 4.650402477 1.6021509944 0.5918165657
H 4.3629087763 -0.592546071 1.6827615846
H 5.3096855245 -1.3784715813 0.4091561548
H 6.0864271119 -0.2307587214 1.5146712555
H -0.0082402098 1.8897797558 0.3352138462
H 0.0084415119 2.1770099876 2.1121967397
H -4.7311198996 1.398116349 0.5261454853
H -5.3528093811 -0.007968876 1.4436136493
H -3.554729631 0.4336171081 3.1782635733
H -3.0879900091 1.8817634468 2.2706133155
H -4.6904487824 1.7864327594 3.0132657442
H -1.7110794066 -0.3961984279 -2.8168598075
H -1.6783531739 -2.160982306 -2.5643510687
H -4.0980219646 -0.3174812932 -2.1882329224
H -3.8763009271 -1.4827631133 -3.5016425276
H -4.0918922044 -2.0533817903 -1.833972796
*
