  24
        -28.54568866
 C          3.5263835722       -0.9142802280        0.9043278997
 C          2.3442820476       -0.6462199587       -0.0195023554
 C          2.0073577978        0.8410400310       -0.0871294537
 C          0.8209028936        1.1306684799       -1.0164358215
 C         -0.4484944374        0.5206567132       -0.4946616270
 C         -0.9581087171       -0.6526540877       -1.0357022100
 C         -2.1111337061       -1.2249866551       -0.5266289666
 C         -2.7719578538       -0.6301520103        0.5342719252
 C         -2.2742758763        0.5412897099        1.0804914583
 C         -1.1222499828        1.1103814705        0.5687776225
 H          3.7528376911       -1.9771099676        0.9369329892
 H          3.3023222526       -0.5798299252        1.9148375136
 H          4.4104761915       -0.3843944778        0.5564484743
 H          1.4712623697       -1.1974655765        0.3373173466
 H          2.5791897202       -1.0086554515       -1.0230133802
 H          1.7733868054        1.2017593248        0.9169216073
 H          2.8803021939        1.3909212436       -0.4458113999
 H          1.0401084380        0.7364624113       -2.0103910840
 H          0.6957391473        2.2126554978       -1.0972558418
 H         -0.4472906572       -1.1225535467       -1.8640513587
 H         -2.4944029073       -2.1377349259       -0.9588492373
 H         -3.6714515477       -1.0755826348        0.9324944594
 H         -2.7867929514        1.0125012326        1.9064081455
 H         -0.7402423732        2.0264027696        0.9966450139
  24
        -28.54550389
 C          4.2296917752       -0.6245572741        0.7110874818
 C          3.2722192975        0.1752584135       -0.1644841002
 C          1.8138025663       -0.1383081240        0.1595573517
 C          0.8450154117        0.6662804624       -0.7155848781
 C         -0.5772184062        0.3350629363       -0.3675240496
 C         -1.2373205378       -0.7098794427       -1.0021358533
 C         -2.5343600409       -1.0428728748       -0.6537783629
 C         -3.1902995506       -0.3348239903        0.3390245568
 C         -2.5412148942        0.7068766121        0.9799942660
 C         -1.2442202149        1.0370034182        0.6289248283
 H          5.2617604083       -0.3898354004        0.4623966151
 H          4.0750545623       -1.6917994328        0.5681180604
 H          4.0675348808       -0.3938281660        1.7617198738
 H          3.4649936210       -0.0523739544       -1.2153204455
 H          3.4526359243        1.2427256674       -0.0186049106
 H          1.6279345807       -1.2047045984        0.0112845157
 H          1.6170826047        0.0868459214        1.2104030983
 H          1.0352270146        0.4339289400       -1.7652931757
 H          1.0268907211        1.7319037252       -0.5624075854
 H         -0.7304261031       -1.2648928483       -1.7786717526
 H         -3.0353810415       -1.8559143854       -1.1584981665
 H         -4.2029656864       -0.5927455917        0.6109899541
 H         -3.0475548471        1.2639914758        1.7546214783
 H         -0.7427022276        1.8520403678        1.1312271394
  24
        -28.54481434
 C          3.1796091280       -1.1802496705       -0.0678896949
 C          2.3020641056       -0.2862465930       -0.9369538084
 C          1.9734426638        1.0548846749       -0.2804105814
 C          1.0176023140        0.9374938514        0.9157041658
 C         -0.3254150234        0.4115878387        0.4975244803
 C         -0.6853870913       -0.9098845299        0.7282414582
 C         -1.9132448396       -1.3934958108        0.3101512085
 C         -2.8010301922       -0.5594930362       -0.3469323005
 C         -2.4543181084        0.7610284592       -0.5805322430
 C         -1.2266744659        1.2402854252       -0.1613057765
 H          2.6684958009       -1.4596795939        0.8494387558
 H          4.1022329854       -0.6672436674        0.1952449210
 H          3.4340903784       -2.0920230285       -0.6029639381
 H          1.3722037644       -0.8068324740       -1.1771225157
 H          2.8235387691       -0.0913910160       -1.8770700136
 H          2.9001096932        1.5267005087        0.0535473275
 H          1.5157190240        1.7072983872       -1.0274355095
 H          0.8955851148        1.9298790874        1.3556720277
 H          1.4540032858        0.2848732168        1.6720110737
 H          0.0003491067       -1.5681582747        1.2423316012
 H         -2.1773865660       -2.4239624530        0.4978514898
 H         -3.7594160347       -0.9351260726       -0.6732957308
 H         -3.1439276166        1.4185648463       -1.0894717239
 H         -0.9629813951        2.2724846730       -0.3434490103
  24
        -28.54470165
 C          3.9532525328       -0.5015461233       -0.5845798288
 C          3.2764077363        0.1869286540        0.5954825668
 C          1.7789410373       -0.1069857460        0.6865592216
 C          0.9716917816        0.5053513605       -0.4653454261
 C         -0.4942043553        0.2525627819       -0.2634246459
 C         -1.0853432438       -0.9074032043       -0.7488325890
 C         -2.4272298879       -1.1631563991       -0.5292198468
 C         -3.1987063446       -0.2603308553        0.1828345486
 C         -2.6197091641        0.8979582699        0.6729854389
 C         -1.2772660038        1.1500298976        0.4518777562
 H          3.5769718229       -0.1187568101       -1.5294608235
 H          3.7759222806       -1.5742457345       -0.5504253600
 H          5.0266678655       -0.3303841172       -0.5545103794
 H          3.4282477997        1.2661230204        0.5223198625
 H          3.7504549095       -0.1514335568        1.5197461785
 H          1.6199060182       -1.1877047277        0.6992987133
 H          1.3954401379        0.2928081799        1.6285789993
 H          1.2911731982        0.0648085252       -1.4102565906
 H          1.1623663647        1.5798048661       -0.5016536985
 H         -0.4881594428       -1.6145751221       -1.3067502917
 H         -2.8730232568       -2.0682100572       -0.9151391449
 H         -4.2464671928       -0.4578686382        0.3537569560
 H         -3.2161203802        1.6069757349        1.2283205021
 H         -0.8306896168        2.0561953705        0.8359904811
  24
        -28.54383728
 C          2.0529093184       -1.3460075375        0.6814720127
 C          2.7245344781       -0.3224309934       -0.2274039604
 C          2.1546940884        1.0915335244       -0.0868055927
 C          0.8762929440        1.3397298893       -0.9002778886
 C         -0.3200692344        0.5849243288       -0.3963135974
 C         -0.8849454001        0.9042493327        0.8336754591
 C         -1.9816605490        0.2102904154        1.3108713752
 C         -2.5378385697       -0.8124174267        0.5601970706
 C         -1.9915046378       -1.1320652766       -0.6707729966
 C         -0.8918188537       -0.4370214849       -1.1441237727
 H          2.5257748961       -2.3186974426        0.5648114570
 H          0.9971574875       -1.4475451309        0.4470478868
 H          2.1437173186       -1.0446873254        1.7229932003
 H          2.6373756620       -0.6459649005       -1.2667533116
 H          3.7891456565       -0.2926521260        0.0177189558
 H          1.9633025242        1.2979820784        0.9677139110
 H          2.9063106445        1.8047212968       -0.4331523849
 H          1.0633345299        1.0751044627       -1.9428460454
 H          0.6539242405        2.4095401163       -0.8602907698
 H         -0.4605727534        1.7056744437        1.4211912603
 H         -2.4071135350        0.4688456955        2.2694900126
 H         -3.3946491847       -1.3546556361        0.9315434242
 H         -2.4222528942       -1.9253577416       -1.2641083383
 H         -0.4690427857       -0.6950083467       -2.1048592165
  24
        -28.54320832
 C          4.3503122589        0.5303576774        0.7071782356
 C          3.3153743382       -0.1194592580       -0.2038764745
 C          1.8918026879        0.1126573646        0.2995113301
 C          0.8635264282       -0.5632472103       -0.6050577626
 C         -0.5773316726       -0.2545613608       -0.2920210116
 C         -1.5379260929       -0.4778686040       -1.2749038842
 C         -2.8767126252       -0.2308454748       -1.0360129984
 C         -3.2836133701        0.2505616458        0.1973701378
 C         -2.3396600428        0.4768796141        1.1826930354
 C         -0.9990988253        0.2246918092        0.9410962359
 H          4.1856275541        1.6040273175        0.7649001875
 H          5.3551746519        0.3564414044        0.3303106581
 H          4.2844627612        0.1197061765        1.7123579846
 H          3.5066656857       -1.1935541219       -0.2615949816
 H          3.4138961393        0.2891325955       -1.2122776591
 H          1.8114156293       -0.2819711611        1.3142267866
 H          1.6935488861        1.1863675538        0.3362085658
 H          1.0014799452       -1.6481483191       -0.5501580390
 H          1.0586208970       -0.2713233420       -1.6406639124
 H         -1.2277028661       -0.8512074295       -2.2408314897
 H         -3.6044459248       -0.4112043306       -1.8136829353
 H         -4.3280433220        0.4478753246        0.3873316568
 H         -2.6464808993        0.8521911141        2.1480755179
 H         -0.2835131307        0.4074462959        1.7270895875
  24
        -28.54211686
 C          3.9487846421        0.2868547005       -0.7663496332
 C          3.3535951760       -0.0088734693        0.6061224422
 C          1.8718254142        0.3575274513        0.7184169225
 C          0.9792246731       -0.5478887674       -0.1257462630
 C         -0.4965674720       -0.2475734144       -0.0708369766
 C         -1.3435422333       -0.9589794081       -0.9179984934
 C         -2.7073708372       -0.7385988573       -0.9175505790
 C         -3.2565576074        0.2048696012       -0.0643490136
 C         -2.4274430708        0.9180297075        0.7817223658
 C         -1.0596621437        0.6942141416        0.7790726915
 H          5.0190501630        0.0941932922       -0.7605671623
 H          3.7894817740        1.3295268550       -1.0324036843
 H          3.4990472028       -0.3370209933       -1.5340433387
 H          3.9067689015        0.5609494343        1.3563842941
 H          3.4816999786       -1.0687720421        0.8374997080
 H          1.5776934670        0.2736872225        1.7669935526
 H          1.7371621054        1.3962660391        0.4083797465
 H          1.1270605084       -1.5848452794        0.1928650560
 H          1.2904500780       -0.4885353406       -1.1713742776
 H         -0.9212740051       -1.6958442704       -1.5869582653
 H         -3.3442247359       -1.3015076531       -1.5841811402
 H         -4.3217673514        0.3816442498       -0.0611496193
 H         -2.8453545127        1.6559657713        1.4509482264
 H         -0.4378251674        1.2659519823        1.4494363561
  24
        -28.54208170
 C          3.9117199474        0.8637074567       -0.1931780522
 C          3.3618001920       -0.5497648980       -0.0354204884
 C          1.8803925115       -0.6707616868       -0.4009529797
 C          0.9675352801        0.0014370922        0.6225629513
 C         -0.4982747602        0.0118082629        0.2741463594
 C         -1.0695161084       -0.8597781432       -0.6435890752
 C         -2.4284487800       -0.8185545420       -0.9098029572
 C         -3.2423647852        0.0924981417       -0.2613499719
 C         -2.6859122834        0.9666344223        0.6577772283
 C         -1.3292763102        0.9247383801        0.9185748806
 H          3.4323860784        1.5536019876        0.4963791122
 H          3.7497056105        1.2227038773       -1.2072427401
 H          4.9803297882        0.8748550580        0.0082237280
 H          3.5068381440       -0.8844960426        0.9942874190
 H          3.9329876007       -1.2191955161       -0.6828510156
 H          1.7145846513       -0.2253249662       -1.3845408184
 H          1.6318908802       -1.7320676193       -0.4633488606
 H          1.2850213161        1.0363292949        0.7651334407
 H          1.0856442651       -0.5052490178        1.5863113078
 H         -0.4585991405       -1.5812910330       -1.1626704977
 H         -2.8521253000       -1.5045062041       -1.6288277255
 H         -4.3013689769        0.1227242576       -0.4699682602
 H         -3.3106847652        1.6835365459        1.1701645538
 H         -0.9026157540        1.6116431527        1.6361274704
  24
        -28.54159166
 C          4.0015008735       -0.8908604217        0.6360482422
 C          2.9761616985       -0.3893889740       -0.3738998100
 C          1.8882213514        0.4485808159        0.2942401275
 C          0.8341465770        0.9628443814       -0.7123394172
 C         -0.5396733036        0.4728943540       -0.3543836786
 C         -0.9821477469       -0.7705719866       -0.7896331214
 C         -2.2299163730       -1.2450834915       -0.4263974150
 C         -3.0557356113       -0.4807168570        0.3806516493
 C         -2.6248734238        0.7590376768        0.8214326152
 C         -1.3757265890        1.2300250115        0.4568480436
 H          3.5203916965       -1.5083473743        1.3912754498
 H          4.4848200632       -0.0543105832        1.1357089558
 H          4.7663308139       -1.4847360996        0.1417696707
 H          2.5159676734       -1.2439161384       -0.8748017611
 H          3.4802327864        0.2124756406       -1.1334843793
 H          1.3939229593       -0.1585688452        1.0564607840
 H          2.3550940252        1.2918715433        0.8057108004
 H          1.0921732639        0.6128740433       -1.7131028193
 H          0.8373627827        2.0530920919       -0.7290164376
 H         -0.3424939315       -1.3707990794       -1.4207165834
 H         -2.5600776771       -2.2128116808       -0.7747282635
 H         -4.0306150293       -0.8490046885        0.6636013379
 H         -3.2642022239        1.3609723083        1.4505108314
 H         -1.0445228050        2.1981277312        0.8043990144
  24
        -28.54104920
 C          3.9013331699       -1.1933969384        0.0968877928
 C          2.7907067107       -0.4023346772       -0.5844646919
 C          2.0255040802        0.4676323376        0.4132089501
 C          0.8507770588        1.2265198646       -0.2202543459
 C         -0.4973663539        0.5708031112       -0.0715813176
 C         -0.6645735982       -0.8081167372       -0.0438392373
 C         -1.9245081563       -1.3687317850        0.0792713533
 C         -3.0438632804       -0.5609151027        0.1733956966
 C         -2.8924301251        0.8150226477        0.1446432864
 C         -1.6318539316        1.3709451559        0.0248968039
 H          3.4881881354       -1.8567953857        0.8537717332
 H          4.6056325693       -0.5206098408        0.5812747386
 H          4.4437009163       -1.7950485172       -0.6284035317
 H          2.1079724776       -1.0927774655       -1.0828930045
 H          3.2249461557        0.2388757623       -1.3553489836
 H          1.6599979880       -0.1497295103        1.2363667682
 H          2.7263318246        1.1894116563        0.8383824512
 H          1.0508355067        1.3629348787       -1.2876591100
 H          0.7861147919        2.2243118633        0.2187015296
 H          0.1911620174       -1.4603921453       -0.1155529488
 H         -2.0312545407       -2.4435566184        0.1006024113
 H         -4.0260151618       -0.9991638651        0.2696049399
 H         -3.7581886497        1.4566659455        0.2194903613
 H         -1.5244472169        2.4465020499        0.0067025383
