! pbe def2-sv(p) def2/J RI DEFGRID1 loosescf d4 GCP(DFT/SV(P)) printgap
%output
    printlevel normal
end
* xyz 0 1
C 3.7394775652 -3.3534892387 -0.3262936399
C 3.1381741332 -2.1081802499 0.3044140738
O 2.7814053369 -1.1311227203 -0.6921298207
C 1.6495882833 -1.2964179916 -1.3562588291
O 0.8858810034 -2.219752865 -1.1894247995
C 1.3992788634 -0.1383781518 -2.303178184
C 0.448727144 0.8525318254 -1.6075939935
H 0.4028621557 1.7911785958 -2.1601929785
C 0.9709250353 1.073492382 -0.2056944222
O 0.5718671979 0.417938349 0.7414665827
O 1.9103875901 1.9693919701 -0.1666503777
C 2.522395739 2.285999566 1.103933751
C 1.7787607532 3.4286480181 1.7745868977
S -1.2476123334 0.1801597883 -1.5205951407
P -1.8121011765 0.0669342479 0.5337959922
S -1.7919164119 1.6646085134 1.6745161202
O -3.3418875644 -0.3534979737 0.2291197196
C -4.3064085921 0.5833199303 -0.2524108501
O -1.3450210326 -1.2741071002 1.2325020541
C -1.6384605665 -2.5932375324 0.7322048093
H 3.0004821091 -3.8550017193 -0.9466433953
H 4.5958653482 -3.084744221 -0.9385639185
H 4.058132443 -4.0308940695 0.4589552714
H 3.8621659093 -1.5934596581 0.9365361066
H 2.2417090495 -2.3531044745 0.8830900359
H 0.9289234214 -0.503676287 -3.2152557358
H 2.3425179342 0.3622208187 -2.5188993992
H 2.5112997814 1.3910613244 1.7312021395
H 3.5439629748 2.5666974671 0.8479293174
H 1.7609529881 4.2982230729 1.1241808735
H 0.7533403697 3.1352269184 1.9963086579
H 2.2772866359 3.6844194683 2.7034380124
H -4.1652607726 0.7447377036 -1.3207267629
H -4.2093925152 1.5290732214 0.2845382605
H -5.2769648155 0.1345251247 -0.0558062438
H -0.9618972611 -2.8278118196 -0.0898567737
H -2.6736063726 -2.6537652184 0.4035125594
H -1.4618622168 -3.2563530159 1.5753982074
*
