! pbe def2-sv(p) def2/J RI DEFGRID1 loosescf d4 GCP(DFT/SV(P)) printgap
%output
    printlevel normal
end
* xyz 0 1
C 2.6981986074 -0.19948694 -2.9197265519
C 3.5534687832 0.6706594097 -2.0192923554
O 3.6414662022 0.1605980898 -0.6801731674
P 2.3888885234 0.0355470942 0.2846631771
S 1.1066341104 1.5283877723 0.2041560694
O 3.2339234148 -0.0485075034 1.6200201744
C 2.6530010135 0.1871779564 2.9153421255
C 1.7581988363 -0.9519852487 3.3639595809
S 1.7074537885 -1.9599463773 0.02054249
C -0.0102672264 -1.7800312649 -0.5376122428
S -1.130972595 -1.0512266673 0.6961020601
P -2.0442462597 0.4850030217 -0.471911745
S -1.3706478172 0.6829462783 -2.3002528534
O -1.9796055786 1.822175539 0.3568650916
C -2.7787941453 2.1349104261 1.5230348913
C -2.4779445494 1.2204888241 2.6913167472
O -3.6064264227 0.160954705 -0.3887322843
C -4.2831806571 -0.7054573725 -1.3136758729
C -3.7959408084 -2.1381650463 -1.2367108022
H 2.8114394628 0.1266478291 -3.9487993541
H 2.9977716446 -1.241335916 -2.8361353015
H 1.6466924811 -0.102948116 -2.647598686
H 3.1536014982 1.689300477 -1.9805432878
H 4.5913963261 0.694546969 -2.3546844737
H 3.5182103353 0.2978577986 3.5708312901
H 2.0959733044 1.1296568823 2.8779363442
H 2.2862981225 -1.8982392339 3.2804515305
H 1.4682248656 -0.7914540625 4.3974689526
H 0.8592831668 -0.997216419 2.7501067557
H -0.3328628805 -2.7995124828 -0.7345615512
H -0.0600295678 -1.1666253036 -1.441508728
H -2.5004109867 3.1676614131 1.7393703256
H -3.8323638922 2.081679349 1.241031433
H -1.4115745539 1.2253447895 2.9042095526
H -3.0191554231 1.5701205 3.5648448387
H -2.7867925316 0.2010934011 2.4650137231
H -5.3317692408 -0.6209976903 -1.0240628842
H -4.1431115715 -0.307291084 -2.3235223192
H -3.8141982603 -2.4918006881 -0.2089947742
H -4.4393718712 -2.7652207016 -1.8455101924
H -2.7788646801 -2.2031533259 -1.6202222961
*
