  19
        -26.30186504
 C         -3.0762353709        0.3690198872        0.0008290220
 C         -1.6177608955        0.0227158241       -0.0005378736
 C         -1.1835424241       -1.2932112245       -0.0006364405
 C          0.1708009070       -1.5859656468       -0.0001449389
 C          1.1268711244       -0.5860192782        0.0002598481
 C          0.6889176660        0.7440639515       -0.0001669328
 C         -0.6656826840        1.0357196750       -0.0004531539
 O          1.6374862881        1.7253242737       -0.0000760743
 C          2.5950328818       -0.8799819768        0.0005528787
 H         -3.3235132536        0.9716156286       -0.8716107267
 H         -3.6861884303       -0.5298762299       -0.0121789924
 H         -3.3268144993        0.9476423172        0.8885673929
 H         -1.9041629691       -2.0975077138       -0.0007196184
 H          0.4929408454       -2.6172026691       -0.0000694915
 H         -0.9905581025        2.0674710864       -0.0003884188
 H          1.2167135114        2.5975239203       -0.0001525057
 H          3.0634332053       -0.4440808655       -0.8810948326
 H          3.0657543700       -0.4290835071        0.8731694896
 H          2.7750374631       -1.9511110307        0.0092316543
  19
        -26.30140098
 C         -3.0752134958        0.3669646191        0.0042877249
 C         -1.6162178040        0.0232113598       -0.0020603743
 C         -1.1797795106       -1.2931551420       -0.0021439738
 C          0.1737218769       -1.5805647055       -0.0019266607
 C          1.1314376718       -0.5787001568       -0.0008462817
 C          0.6924893856        0.7492328738       -0.0008696952
 C         -0.6653578246        1.0353338644       -0.0020572849
 O          1.6268280383        1.7464444652       -0.0008956287
 C          2.5942769379       -0.9105941127        0.0039359671
 H         -3.6831061772       -0.5299631805       -0.0744571123
 H         -3.3363636194        0.8834813251        0.9268537814
 H         -3.3146047557        1.0269901590       -0.8274811233
 H         -1.8990950593       -2.0986338398       -0.0029593064
 H          0.5019117868       -2.6098738482       -0.0023302816
 H         -0.9919162817        2.0666679109       -0.0029741521
 H          1.1895448817        2.6103249497       -0.0028394263
 H          3.1860998002       -0.0021525431       -0.0582816835
 H          2.8577749312       -1.4396146800        0.9186916691
 H          2.8395230298       -1.5529607442       -0.8399779451
  19
        -26.30019700
 C         -3.0786976663        0.3751688244        0.0053677299
 C         -1.6169488716        0.0454980650       -0.0043313764
 C         -1.1903683439       -1.2772301371       -0.0029312183
 C          0.1582095310       -1.5784840307       -0.0003523726
 C          1.1269992141       -0.5849791135        0.0007640991
 C          0.6970299710        0.7443672192       -0.0004260870
 C         -0.6596437289        1.0462521129       -0.0027470086
 O          1.5677692864        1.7969867330       -0.0004324571
 C          2.5905787848       -0.9269133940        0.0020581822
 H         -3.5110499544        0.1254026597        0.9735977550
 H         -3.2384488995        1.4334511123       -0.1811434529
 H         -3.6038804512       -0.2015133651       -0.7531959967
 H         -1.9192554672       -2.0739139979       -0.0043297302
 H          0.4714195900       -2.6126644617        0.0000583525
 H         -0.9451382585        2.0875813487       -0.0041048828
 H          2.4813598276        1.4765699797       -0.0002144804
 H          3.0852834068       -0.5307272698       -0.8850406634
 H          3.0845260244       -0.5273278849        0.8880659748
 H          2.7184867407       -2.0056551914        0.0041325577
