! pbe def2-sv(p) def2/J RI DEFGRID1 loosescf d4 GCP(DFT/SV(P)) printgap
%output
    printlevel normal
end
* xyz 0 1
C 4.7710159074 -1.3549013876 -1.0223850207
C 4.7484210924 0.0532532117 -0.4642550569
O 3.5798813255 0.2993577429 0.3377172251
P 2.1145464841 0.3720486702 -0.282639649
S 2.0571374517 1.2434936342 -2.0431937649
O 1.3371163387 1.0584912153 0.9133678846
C 1.4544831245 2.4767929192 1.1607227352
C 0.5597532593 2.8121382733 2.3343597591
S 1.3879628137 -1.5896974833 -0.1362498499
C 0.1911668066 -1.5935102141 -1.5163944045
S -1.4991117199 -1.9190822864 -0.9751111475
P -1.8471902088 -0.1028781632 0.0813337004
S -1.3361353347 1.5344640005 -0.8601764492
O -1.1612134766 -0.243015627 1.4878812587
C -1.3828624934 -1.3620648779 2.3847304504
C -2.4333993948 -1.017727181 3.4193924594
O -3.3923138215 -0.2248524015 0.4277670494
C -4.3990615195 -0.0989413722 -0.597618961
C -5.738249914 0.085084115 0.0866091225
H 4.6309716307 -2.0804484055 -0.2251567137
H 3.9729536212 -1.4755252451 -1.753706084
H 5.7242863621 -1.5313121967 -1.5100337329
H 4.7695567739 0.7882106644 -1.2752957992
H 5.5774185428 0.2302876211 0.2222045545
H 2.5029020871 2.7057950215 1.3700577691
H 1.1424406997 3.008158866 0.254721194
H 0.8716881814 2.2523525147 3.2110828543
H 0.6213291488 3.8762534916 2.5373597704
H -0.4679271011 2.5498762258 2.0943315227
H 0.4528423476 -2.4076799456 -2.1871618369
H 0.2424682037 -0.6279031048 -2.0275966974
H -1.6763216066 -2.2361794167 1.7965977011
H -0.4072393139 -1.5384528778 2.8419469
H -3.3879010362 -0.8271330132 2.9363147811
H -2.5381969149 -1.8515427105 4.1064883225
H -2.1374926497 -0.1311523667 3.9733740032
H -4.1467052404 0.7597584199 -1.2283458943
H -4.380831965 -1.0070479604 -1.2059525111
H -5.9542152723 -0.7717736268 0.7179991962
H -5.72491021 0.9823808188 0.6989074084
H -6.5121159697 0.1786877867 -0.6680291974
*
