! pbe def2-sv(p) def2/J RI DEFGRID1 loosescf d4 GCP(DFT/SV(P)) printgap
%output
    printlevel normal
end
* xyz 0 1
C 5.7233687 -0.1970187787 -0.1343206957
C 4.3328337409 -0.6391776237 -0.5426969904
O 3.3914855178 0.3163855463 -0.0135723687
P 1.8956003091 0.381230041 -0.5514370077
S 1.7329926604 0.5311814461 -2.4934703556
O 1.3253364421 1.6091336057 0.248076244
C 1.4702678519 1.749551722 1.6840775418
C 2.6046531754 2.6966914126 2.0135006895
S 1.0869378349 -1.3964206172 0.2976020767
C -0.1319250018 -1.8630480207 -0.969548192
S -1.8106870571 -2.0047660275 -0.3195622975
P -2.1204677296 0.046704373 0.1492534638
S -1.5077110793 1.3494767823 -1.1781777885
O -1.4569234894 0.2546097567 1.566984035
C -1.8974384567 -0.5138534062 2.7243897521
C -0.6958220089 -0.8369129827 3.587247954
O -3.6667613137 0.1123278991 0.5122782765
C -4.6939490637 0.3396370585 -0.4692426578
C -4.8051017925 -0.7989508616 -1.4620632392
H 5.9373045983 0.7866015164 -0.5432459293
H 5.7976122656 -0.1542796293 0.9484028929
H 6.4481321302 -0.9080586733 -0.5166020826
H 4.087924437 -1.6218718699 -0.1306833991
H 4.2221819827 -0.6681035312 -1.6316868605
H 0.5060216654 2.14073868 2.0157580896
H 1.6370582902 0.7604816379 2.1196860955
H 2.6483587607 2.836741066 3.0890664828
H 3.5483433776 2.287049675 1.6633015002
H 2.4387338837 3.6564006672 1.5313906963
H 0.13063712 -2.8494456436 -1.3432760165
H -0.0971313568 -1.1170562637 -1.7687781901
H -2.6221529069 0.1060777854 3.2540909229
H -2.3889858534 -1.4252113847 2.3728415046
H -0.2125961455 0.0772292531 3.9193536454
H -1.0302249703 -1.3998363463 4.4527756096
H 0.0197792358 -1.4351050323 3.0284197109
H -5.6008213255 0.4446077696 0.1279992522
H -4.4749539008 1.2796449756 -0.9848521385
H -4.9004802677 -1.7487218958 -0.941830847
H -5.6759852773 -0.6414001858 -2.0902080362
H -3.9183073159 -0.8299954183 -2.0936261659
*
