! pbe def2-sv(p) def2/J RI DEFGRID1 loosescf d4 GCP(DFT/SV(P)) printgap
%output
    printlevel normal
end
* xyz 0 1
C 3.635140054 0.0606689733 -2.8584408814
C 4.5414255669 -0.4614018702 -1.7605541177
O 3.8238394533 -1.2506627192 -0.7988553963
P 2.7993859107 -0.6036253004 0.221024406
S 3.3143937043 1.1894007099 0.8454232933
O 2.8597732825 -1.7947941321 1.2582201084
C 1.8451371418 -2.1073251911 2.2301794479
C 1.4845167084 -0.9262829081 3.1087880768
S 0.881513899 -0.7564620206 -0.7173830011
C 0.2475421948 0.9104453262 -0.3790837358
S -1.071555618 0.9263236697 0.8488746733
P -2.6664417883 0.459101073 -0.4937485644
S -2.4900880554 1.2706985483 -2.2679665244
O -3.9633225036 0.7709409314 0.3684167477
C -4.1907938176 1.9775755687 1.1211668838
C -4.0701182649 3.2265350888 0.2739146018
O -2.7741648278 -1.1026955518 -0.6735525779
C -3.1492304552 -2.0674713373 0.3398529791
C -1.9443906526 -2.5365144347 1.1309540856
H 4.2364004009 0.5367584296 -3.6263313473
H 3.0672579303 -0.7548508257 -3.2996186828
H 2.9401369818 0.7952105726 -2.4526313814
H 5.0313491138 0.3681776503 -1.239703241
H 5.2940569071 -1.1461057465 -2.1537731915
H 0.9650244288 -2.4816439032 1.7005190843
H 2.292820532 -2.9137786225 2.8136089272
H 2.3788346249 -0.505771581 3.562691366
H 0.9968923891 -0.1458730215 2.5239730394
H 0.8063288149 -1.2529676945 3.8906040067
H -0.1499809046 1.3157083306 -1.3117877447
H 1.0642151544 1.5253416243 0.0093237074
H -5.2051774925 1.8524890436 1.5042034052
H -3.478886013 2.0021741489 1.9506016845
H -4.7305234762 3.1662566594 -0.5881211929
H -4.3343378136 4.0941411293 0.8698928846
H -3.0483479591 3.3413753387 -0.0852669637
H -3.9077781645 -1.6249880872 0.987279952
H -3.5859786383 -2.8845875599 -0.2368269567
H -2.2386580028 -3.3666308104 1.7653654182
H -1.1653227168 -2.8658643694 0.446906433
H -1.5575779596 -1.7337252277 1.7539240143
*
