! pbe def2-sv(p) def2/J RI DEFGRID1 loosescf d4 GCP(DFT/SV(P)) printgap
%output
    printlevel normal
end
* xyz 0 1
C -3.0786976663 0.3751688244 0.0053677299
C -1.6169488716 0.045498065 -0.0043313764
C -1.1903683439 -1.2772301371 -0.0029312183
C 0.158209531 -1.5784840307 -0.0003523726
C 1.1269992141 -0.5849791135 0.0007640991
C 0.697029971 0.7443672192 -0.000426087
C -0.6596437289 1.0462521129 -0.0027470086
O 1.5677692864 1.796986733 -0.0004324571
C 2.5905787848 -0.926913394 0.0020581822
H -3.5110499544 0.1254026597 0.973597755
H -3.2384488995 1.4334511123 -0.1811434529
H -3.6038804512 -0.2015133651 -0.7531959967
H -1.9192554672 -2.0739139979 -0.0043297302
H 0.47141959 -2.6126644617 5.83525e-05
H -0.9451382585 2.0875813487 -0.0041048828
H 2.4813598276 1.4765699797 -0.0002144804
H 3.0852834068 -0.5307272698 -0.8850406634
H 3.0845260244 -0.5273278849 0.8880659748
H 2.7184867407 -2.0056551914 0.0041325577
*
