! pbe def2-sv(p) def2/J RI DEFGRID1 loosescf d4 GCP(DFT/SV(P)) printgap
%output
    printlevel normal
end
* xyz 0 1
C 2.8449794209 0.9860992209 -2.4713621454
C 2.0383695463 -0.2953929796 -2.4709604673
O 1.2953354869 -0.4834262123 -1.2495502035
P 1.9182489531 -0.5254934905 0.2066421076
S 2.5319278987 1.1235347132 1.0857131502
O 3.0686180361 -1.6062529056 0.0012037128
C 4.126431422 -1.7973902121 0.9560295279
C 3.6334269055 -2.4607800683 2.22553748
S 0.3913202564 -1.5590607264 1.2166825163
C -0.4819774236 -0.1739526678 2.0193643598
S -2.1893699586 0.0116496744 1.4594147885
P -1.8248772561 0.7579274893 -0.498381181
S -0.4404118854 2.1292400171 -0.6639687645
O -3.2755347615 1.2093469908 -0.9746364354
C -3.8063109907 2.5228676029 -0.725115603
C -4.0634968604 2.7744169641 0.7464223845
O -1.5654893677 -0.4922383016 -1.4253415902
C -2.542799317 -1.546477726 -1.647642274
C -2.1491346542 -2.8108227412 -0.9110286566
H 3.6278356357 0.9400936008 -1.7149766732
H 3.2993062992 1.1294905658 -3.4465722903
H 2.2000573353 1.8340570933 -2.2456419358
H 2.6826493849 -1.1664496688 -2.6129296702
H 1.2599179155 -0.2742223654 -3.236168605
H 4.8468800632 -2.4224900212 0.4266664472
H 4.5700068816 -0.8217225517 1.1799192682
H 2.976050063 -1.7827418759 2.7673321812
H 3.0842827162 -3.368479082 1.9891353706
H 4.4833008233 -2.704541891 2.8547624951
H 0.0783737225 0.746284697 1.8309778093
H -0.5402175504 -0.3858855318 3.0837227678
H -3.1025196285 3.2598115219 -1.12434104
H -4.7305968373 2.5400754055 -1.3045010767
H -3.1196357118 2.8383550768 1.2853524438
H -4.5949585625 3.7139071928 0.8592667472
H -4.6569848921 1.9688999906 1.1713259323
H -3.5264132064 -1.191187168 -1.3363472422
H -2.5325919957 -1.6988720398 -2.7281368075
H -1.1293819849 -3.0893380373 -1.163866656
H -2.2116569202 -2.6704997634 0.1652999834
H -2.8220327198 -3.610443612 -1.2041134133
*
