! pbe def2-sv(p) def2/J RI DEFGRID1 loosescf d4 GCP(DFT/SV(P)) printgap
%output
    printlevel normal
end
* xyz 0 1
C 4.3279737913 -0.7127888359 -2.969607477
C 4.4150317228 -0.1498513737 -1.5644391
O 3.4224978539 -0.7575938757 -0.7142335332
P 2.0672446387 0.0186029863 -0.3468002735
S 1.1067543246 0.6781185267 -1.9200943905
O 2.4907407775 1.226411439 0.5877457153
C 2.8005583783 1.1517770502 1.9982297901
C 3.932411393 0.193289413 2.3027534818
S 1.2153120965 -1.5190502034 0.8038280822
C -0.1512882691 -1.9880585657 -0.3065735714
S -1.7947390306 -1.7634029221 0.4156268379
P -1.9785739569 0.3561921409 0.2888276666
S -0.6385285205 1.3718575533 1.2987283586
O -3.4696930761 0.5870496107 0.7739951094
C -3.8365543502 0.4259517298 2.161259532
C -5.1621744016 1.1271877577 2.3761640356
O -2.0272916538 0.7746631763 -1.2245376611
C -3.1661396457 0.6563623389 -2.1149855866
C -3.5488922737 -0.7823424254 -2.389913042
H 3.3705209471 -0.4540629107 -3.4166662262
H 5.1272629036 -0.2959234267 -3.5739345582
H 4.4215203181 -1.7944765326 -2.9398075902
H 4.2741937433 0.9363981676 -1.5659763937
H 5.3726696363 -0.3933154957 -1.0997271551
H 3.0603729425 2.1817052892 2.248311605
H 1.8854173956 0.8728039591 2.527780912
H 4.1430707331 0.2287881497 3.3670079629
H 3.6518367597 -0.8237559609 2.0324040933
H 4.825896095 0.4747159812 1.7506895321
H -0.0630977359 -3.0521147701 -0.5082078872
H -0.068900395 -1.3959085768 -1.2225918654
H -3.9096946326 -0.6446285013 2.368338981
H -3.0456179519 0.8594179016 2.7820559399
H -5.0663716296 2.1855858317 2.1496744769
H -5.9214212172 0.6948521082 1.7311510854
H -5.4609565722 1.0092175861 3.4124208263
H -3.998159672 1.208804134 -1.6756340233
H -2.8169767916 1.1591813047 -3.0185984684
H -4.3307488635 -0.7963741847 -3.1430085941
H -2.6907820661 -1.3380938792 -2.7601260193
H -3.918884221 -1.2598132907 -1.4854802015
*
