! pbe def2-sv(p) def2/J RI DEFGRID1 loosescf d4 GCP(DFT/SV(P)) printgap
%output
    printlevel normal
end
* xyz 0 1
C 4.7706407063 -0.971600122 -0.8951301701
C 4.3817271671 -0.5942917091 0.5183495318
O 3.3272659695 0.3861091105 0.5801242386
P 1.9271757347 0.3129309933 -0.1715403237
S 1.941909046 0.648796656 -2.1107585161
O 1.0715114922 1.3051086805 0.7182039359
C 1.523682994 2.5876900534 1.1974793896
C 1.9568943446 3.5019271966 0.0714434809
S 1.1664454596 -1.5723880498 0.3844608573
C 0.021754667 -1.8853388898 -0.9937907578
S -1.7012685737 -2.0219046443 -0.4665218837
P -2.0392454176 0.0040224961 0.0910039929
S -1.4809345246 1.3771045155 -1.1839765089
O -1.3834262101 0.1669883765 1.515417251
C -1.7607998611 -0.6638561299 2.6468533166
C -0.6098722284 -0.6655580939 3.6308840843
O -3.5885239508 0.0101431177 0.4565829654
C -4.6228019687 0.2502591846 -0.5140885367
C -4.7166812405 -0.8562089931 -1.5443986178
H 3.942737623 -1.4717269592 -1.3948983477
H 5.030057736 -0.0858325265 -1.4699926739
H 5.6230752833 -1.6424520114 -0.8635642614
H 5.2078648279 -0.1094225481 1.0418677324
H 4.0537859106 -1.4752342598 1.0765282439
H 0.6492750746 2.9827962492 1.718227435
H 2.3400901528 2.4192226637 1.9035323197
H 1.1539172701 3.6047740128 -0.6568302078
H 2.208633862 4.4791985089 0.4710624503
H 2.8276223959 3.0842707985 -0.4334703504
H 0.2754328013 -2.8478929318 -1.4305322332
H 0.1332460043 -1.0787399112 -1.7253926478
H -2.6648578645 -0.2323673623 3.0800985574
H -1.9791525676 -1.6728122157 2.2842276023
H 0.2741269049 -1.1039803518 3.174519478
H -0.3792149212 0.3511856229 3.9360806079
H -0.8901609123 -1.2493065106 4.5016904803
H -5.5297066652 0.3180311635 0.0885165478
H -4.4235596836 1.2111442349 -0.9984978595
H -3.8347411729 -0.8469737203 -2.1830188869
H -4.7867738805 -1.8246979596 -1.0556173492
H -5.5961195717 -0.6969504886 -2.1600936704
*
