! pbe def2-sv(p) def2/J RI DEFGRID1 loosescf d4 GCP(DFT/SV(P)) printgap
%output
    printlevel normal
end
* xyz 0 1
C 4.138967311 2.1601441455 -0.0289057857
C 4.1337265104 0.8177075186 -0.72912756
O 2.811854845 0.2345237312 -0.7893898263
P 1.9894976719 -0.2372893961 0.4784359631
S 1.1093992342 1.1189300959 1.5932025667
O 3.070336598 -1.085835301 1.2813716635
C 2.8462857598 -1.4974663879 2.6387766124
C 1.809580172 -2.5990190858 2.7172602096
S 0.7667922408 -1.7095289147 -0.4679431672
C 0.3823365726 -0.8249755294 -2.0039737989
S -0.3207501298 0.8216171267 -1.741485291
P -2.1416413885 0.1479150846 -0.9020062412
S -2.9602336004 -1.4192714699 -1.7305352252
O -3.0906774859 1.4109780326 -0.9968179938
C -2.6942267555 2.7888662146 -0.8038960407
C -2.3080140518 3.0885909472 0.629321176
O -1.727906205 -0.0446553901 0.6274497448
C -2.3071363217 -1.051667512 1.4721853051
C -3.7262140899 -0.6909553283 1.859250927
H 3.8698572604 2.0412399372 1.0194008943
H 5.131527006 2.5948730816 -0.0935351808
H 3.4202615257 2.8304267794 -0.4945257444
H 4.7991076333 0.1100087291 -0.2303480376
H 4.413160468 0.9154820635 -1.779593657
H 3.8247747178 -1.8352148156 2.9820622025
H 2.5270945322 -0.6238480478 3.2176889818
H 1.6935927545 -2.9183650673 3.7477708642
H 0.8525336265 -2.2277043018 2.3490192052
H 2.1075624762 -3.4457346042 2.1046988329
H -0.3423375683 -1.4476047796 -2.5312906982
H 1.2891608738 -0.6884748302 -2.5867645242
H -1.867538775 3.008589258 -1.4852986566
H -3.581075641 3.348214163 -1.1069214782
H -2.1046241326 4.1505357959 0.7259307826
H -3.1174562273 2.8175967809 1.3020535835
H -1.414488685 2.5349728171 0.9129500512
H -2.2774001832 -2.011481967 0.9458428083
H -1.6452528781 -1.0811432749 2.3397083245
H -3.7434432219 0.2620383669 2.3812755366
H -4.3402071387 -0.6149186699 0.9616915701
H -4.1328408115 -1.4639229482 2.5034500959
*
