! pbe def2-sv(p) def2/J RI DEFGRID1 loosescf d4 GCP(DFT/SV(P)) printgap
%output
    printlevel normal
end
* xyz 0 1
C 5.7831723632 0.6699776448 -0.7784441157
C 4.4363899093 0.9891736169 -0.162126756
O 3.5703071196 -0.1429965627 -0.378712105
P 2.256549928 -0.344395047 0.4888110563
S 2.5375797129 -0.2548707148 2.4235506398
O 1.7420347296 -1.7639534335 0.0554747606
C 1.2072793797 -2.1740261123 -1.2277817486
C 2.081639761 -1.7839413549 -2.3977535133
S 0.9259580143 1.1267550356 -0.2960625719
C -0.0933565797 1.316422645 1.1856861879
S -1.1848320726 -0.0947229244 1.5022137481
P -2.523809841 0.1482720433 -0.1430038729
S -1.9978008498 -0.4709773339 -1.9306348309
O -2.9005494624 1.6834721299 -0.0745184425
C -2.9565285307 2.5610925847 -1.2196166012
C -1.7904012309 3.5295066027 -1.2194562674
O -3.8677115735 -0.4836485946 0.4188992682
C -3.9793159412 -1.7473917412 1.0956029995
C -3.2777670358 -2.8725847214 0.3624069298
H 6.2101593802 -0.2098783605 -0.3053807013
H 5.670331485 0.4789698893 -1.8415730341
H 6.4496764116 1.5136573426 -0.6329296071
H 3.9781138371 1.8630951826 -0.632936107
H 4.5199917971 1.163968449 0.9159405057
H 1.1291586479 -3.2573662311 -1.1251942842
H 0.207650722 -1.7442285365 -1.3392624699
H 2.1008975696 -0.7018052898 -2.5107531894
H 3.0958347825 -2.1464992197 -2.2520713339
H 1.6647071217 -2.2196343929 -3.3006882114
H -0.6866760154 2.2183758189 1.0634866023
H 0.5591568873 1.3804719951 2.0584223964
H -2.9569955101 1.9561121977 -2.1320044232
H -3.909308811 3.0842842972 -1.1251360662
H -1.9053174667 4.2147025715 -2.0531275108
H -1.7690591513 4.0991509006 -0.29411928
H -0.8499606931 2.9919743619 -1.3350609791
H -3.5714546389 -1.6304560998 2.1039825452
H -5.0562217203 -1.9166393434 1.1500179103
H -2.2020652234 -2.6957819796 0.3493937549
H -3.4729935688 -3.8116770248 0.8702160388
H -3.6324514919 -2.9362986475 -0.6638134174
*
