  24
  -31.8182191600000       9.853903623422038E-002 !gc
 C         -3.0376207834       -1.4579278730       -0.0008638956
 C         -1.7404244615       -0.7098242857        0.0000614410
 C         -0.5470869548       -1.3827016756        0.0003584622
 C          0.6905814260       -0.7089294296        0.0003995161
 C          1.9239451726       -1.3922352287        0.0004446352
 C          3.1039910770       -0.7019096683       -0.0000517214
 C          3.1039776517        0.7019422653       -0.0005705323
 C          1.9239166410        1.3922426998       -0.0003839672
 C          0.6905759103        0.7089036997        0.0001249969
 C         -0.5470911036        1.3826540026        0.0002877318
 C         -1.7404331987        0.7097649107        0.0002968465
 C         -3.0375937403        1.4579811303        0.0001972129
 H         -3.6274020363       -1.2017020196        0.8778811984
 H         -3.6252765534       -1.2026811493       -0.8813620705
 H         -2.8606918338       -2.5300828573       -0.0000921768
 H         -0.5392182202       -2.4642724796        0.0004008232
 H          1.9190721391       -2.4730841794        0.0007470317
 H          4.0456732922       -1.2310458504       -0.0001193904
 H          4.0456267876        1.2311432406       -0.0010388348
 H          1.9190630573        2.4730905848       -0.0006360181
 H         -0.5392610939        2.4642230289        0.0002844204
 H         -3.6272771127        1.2009430214        0.8787364146
 H         -2.8604215056        2.5300953096        0.0021347915
 H         -3.6253266943        1.2038434996       -0.8805199014
  24
  -31.8182191600000       9.853903623422038E-002 !gc
 C         -3.0376199288       -1.4579349827       -0.0010566921
 C         -1.7404275864       -0.7097922285       -0.0001047153
 C         -0.5470843106       -1.3826912579        0.0002057617
 C          0.6905641774       -0.7089200080        0.0003890510
 C          1.9239281751       -1.3922104561        0.0007227054
 C          3.1040007189       -0.7019183729        0.0002351662
 C          3.1040120614        0.7019347717       -0.0006772849
 C          1.9239424406        1.3922178385       -0.0006703921
 C          0.6905705600        0.7089310083       -0.0000275277
 C         -0.5470843659        1.3826925896        0.0001730588
 C         -1.7404265562        0.7098032229        0.0002226734
 C         -3.0376080336        1.4579046330        0.0007212298
 H         -3.6258065365       -1.2019006562       -0.8809747238
 H         -2.8606125930       -2.5300752662       -0.0013972482
 H         -3.6269145101       -1.2025684787        0.8782793869
 H         -0.5392553756       -2.4642616025        0.0000476809
 H          1.9191306927       -2.4730612464        0.0012642811
 H          4.0456153179       -1.2311726979        0.0004962090
 H          4.0456397838        1.2311474929       -0.0012721900
 H          1.9190585188        2.4730669821       -0.0011677632
 H         -0.5392759740        2.4642627134        0.0003696711
 H         -3.6265884763        1.2023465851       -0.8787148121
 H         -3.6260169416        1.2018957816        0.8804887066
 H         -2.8607677977        2.5301206903        0.0009954510
  24
  -31.8182191500000       9.853799350465289E-002 !gc
 C         -3.0375933193       -1.4579724933       -0.0013476054
 C         -1.7404245492       -0.7098088381       -0.0001574650
 C         -0.5471023464       -1.3826866153        0.0002686028
 C          0.6905798196       -0.7089037959        0.0004762945
 C          1.9239173592       -1.3922278794        0.0008948270
 C          3.1039915469       -0.7019228071        0.0003164751
 C          3.1039974315        0.7019190111       -0.0007607245
 C          1.9239250179        1.3922359489       -0.0008763972
 C          0.6905825247        0.7089234796       -0.0001072450
 C         -0.5471030796        1.3827049931        0.0001578406
 C         -1.7404178129        0.7098127523        0.0003519865
 C         -3.0376050650        1.4579404286        0.0009373290
 H         -3.6261393339       -1.2009956946       -0.8807177354
 H         -2.8606084072       -2.5301124648       -0.0028153798
 H         -3.6265037866       -1.2034974667        0.8785057338
 H         -0.5392342446       -2.4642557133        0.0002745748
 H          1.9190683962       -2.4730748588        0.0016760242
 H          4.0456411696       -1.2311198246        0.0007286683
 H          4.0456532270        1.2311026603       -0.0013963362
 H          1.9190756522        2.4730840435       -0.0016188473
 H         -0.5392340965        2.4642736363        0.0001810685
 H         -3.6270079047        1.2001618575        0.8795155686
 H         -2.8606303942        2.5300655002        0.0035647618
 H         -3.6256379252        1.2041992889       -0.8797323228
  24
  -31.8182190900000       9.853173735932941E-002 !mtd9
 C         -3.0376324053       -1.4579419027       -0.0002248782
 C         -1.7404128222       -0.7098042557       -0.0003006459
 C         -0.5470888454       -1.3826905133       -0.0003095259
 C          0.6905900191       -0.7089100032       -0.0000901185
 C          1.9239356723       -1.3922261458        0.0004476981
 C          3.1040009015       -0.7019216218        0.0005112642
 C          3.1039950794        0.7019284350       -0.0000441392
 C          1.9239258413        1.3922308584       -0.0005841735
 C          0.6905828273        0.7089143931       -0.0004109462
 C         -0.5470957624        1.3826896429       -0.0002479815
 C         -1.7404205190        0.7098016631        0.0000854197
 C         -3.0376153945        1.4579280244        0.0008716406
 H         -2.8606136177       -2.5300865673       -0.0028581826
 H         -3.6251587080       -1.2041873975        0.8808597060
 H         -3.6275874736       -1.2002073296       -0.8784428760
 H         -0.5392376417       -2.4642578812       -0.0003951870
 H          1.9190692566       -2.4730676645        0.0011834240
 H          4.0456518674       -1.2311071918        0.0013838206
 H          4.0456444552        1.2311244314       -0.0000761833
 H          1.9190679641        2.4730744184       -0.0012913918
 H         -0.5392421912        2.4642580423       -0.0002386205
 H         -3.6260299766        1.2015483799        0.8805337270
 H         -2.8606170017        2.5300758353        0.0016069632
 H         -3.6267079369        1.2028499145       -0.8787332059
  24
  -31.8182190300000       9.852548161157697E-002 !md2
 C         -3.0376097337       -1.4579182778       -0.0007561312
 C         -1.7404121635       -0.7097981014       -0.0000985108
 C         -0.5470851165       -1.3826966136        0.0004171863
 C          0.6905743715       -0.7089054790        0.0005335353
 C          1.9239468804       -1.3922359959        0.0004647644
 C          3.1039839034       -0.7019334258       -0.0002792886
 C          3.1039793075        0.7019535371       -0.0006741282
 C          1.9239303990        1.3922306894       -0.0002163874
 C          0.6905666215        0.7089033813        0.0002880398
 C         -0.5470821957        1.3826978384        0.0003289346
 C         -1.7404286386        0.7098092675        0.0001042190
 C         -3.0375917226        1.4579016801        0.0001229081
 H         -3.6277744347       -1.1991344480       -0.8785047068
 H         -2.8606365406       -2.5300622856       -0.0047487067
 H         -3.6249197730       -1.2052938395        0.8807617331
 H         -0.5392617613       -2.4642646183        0.0004362310
 H          1.9190202305       -2.4730879889        0.0009237802
 H          4.0456691235       -1.2310765534       -0.0005938173
 H          4.0456735140        1.2310561858       -0.0014681217
 H          1.9190263084        2.4730768946       -0.0004904286
 H         -0.5392922239        2.4642646570        0.0004565305
 H         -2.8606666848        2.5300385106        0.0001037989
 H         -3.6264110334        1.2022167884       -0.8794514163
 H         -3.6262749668        1.2021654000        0.8797729786
  24
  -31.8182189900000       9.852131133323604E-002 !md4
 C         -3.0375930959       -1.4579600606        0.0002866298
 C         -1.7404103176       -0.7097741372       -0.0000611128
 C         -0.5470669527       -1.3826913542       -0.0000863734
 C          0.6905686908       -0.7089083632       -0.0000533044
 C          1.9239582623       -1.3922525009       -0.0000890243
 C          3.1039654484       -0.7019590250       -0.0000562681
 C          3.1039535597        0.7019647568        0.0000326959
 C          1.9239390561        1.3922503596        0.0000604678
 C          0.6905530584        0.7088964965        0.0000160130
 C         -0.5470781036        1.3826887447        0.0000530983
 C         -1.7404308257        0.7097893612        0.0000535500
 C         -3.0376091045        1.4579555559       -0.0001866548
 H         -2.8605488331       -2.5300789749       -0.0045406138
 H         -3.6237742873       -1.2059799202        0.8827102797
 H         -3.6288692108       -1.1986037703       -0.8765043445
 H         -0.5392946479       -2.4642549371       -0.0001568263
 H          1.9189922052       -2.4730995014       -0.0001122315
 H          4.0457251943       -1.2309528687       -0.0001037040
 H          4.0456958109        1.2309900791        0.0000742263
 H          1.9189844719        2.4730971281        0.0000828367
 H         -0.5392377406        2.4642539229        0.0001319944
 H         -2.8605802704        2.5300789082        0.0042028572
 H         -3.6240777223        1.2056401624       -0.8823198907
 H         -3.6285982184        1.1989117535        0.8768962956
  24
  -31.8182189800000       9.852026879160194E-002 !md4
 C         -3.0376049814       -1.4579447074       -0.0008160737
 C         -1.7404265979       -0.7098105413       -0.0005969354
 C         -0.5471000737       -1.3827027761       -0.0007196712
 C          0.6905652469       -0.7089197256       -0.0001889295
 C          1.9239297535       -1.3922144368        0.0012245734
 C          3.1039803593       -0.7019063795        0.0013240120
 C          3.1039985257        0.7019471626       -0.0004320637
 C          1.9239229281        1.3922273430       -0.0013830514
 C          0.6905915875        0.7088943073       -0.0007670113
 C         -0.5470860753        1.3826852417       -0.0003219503
 C         -1.7404110594        0.7097981662        0.0002622407
 C         -3.0376053014        1.4579510499        0.0019391342
 H         -2.8605998802       -2.5300831908       -0.0032755091
 H         -3.6252684409       -1.2041684188        0.8800413246
 H         -3.6273562496       -1.2004213790       -0.8791727965
 H         -0.5392768618       -2.4642750049       -0.0007461234
 H          1.9190940589       -2.4730553296        0.0023453375
 H          4.0456511798       -1.2310486126        0.0026498618
 H          4.0456658995        1.2310937777       -0.0007993825
 H          1.9190169136        2.4730690640       -0.0024731611
 H         -0.5392586081        2.4642595170       -0.0003998361
 H         -3.6276145668        1.2024963010       -0.8768250886
 H         -3.6250985940        1.2020719256        0.8823269414
 H         -2.8605933466        2.5300052957        0.0019975952
  24
  -31.8182188500000       9.850671675053037E-002 !md1
 C         -3.0376084486       -1.4579389884        0.0008771976
 C         -1.7404112359       -0.7098010403       -0.0001514775
 C         -0.5470926679       -1.3827072887       -0.0008777630
 C          0.6905763277       -0.7089366968       -0.0007919442
 C          1.9239380636       -1.3922159447       -0.0001554943
 C          3.1040093713       -0.7019012415        0.0008375330
 C          3.1040022363        0.7019408814        0.0008070783
 C          1.9239093617        1.3922150517       -0.0001393893
 C          0.6905696999        0.7088964498       -0.0008131000
 C         -0.5470975892        1.3826803976       -0.0009845815
 C         -1.7404352170        0.7098027382       -0.0002370817
 C         -3.0375989202        1.4579625298        0.0009637501
 H         -3.6235970315       -1.2054040635        0.8833146145
 H         -3.6291251957       -1.1990505046       -0.8760074256
 H         -2.8605814697       -2.5301386803       -0.0035346754
 H         -0.5392867625       -2.4642753848       -0.0013816666
 H          1.9191358653       -2.4730658995       -0.0003265952
 H          4.0456432729       -1.2311356486        0.0015463835
 H          4.0456481283        1.2311527029        0.0015094165
 H          1.9190065955        2.4730649328       -0.0002365461
 H         -0.5392715776        2.4642266672       -0.0009862599
 H         -3.6285605807        1.2000180045       -0.8764200450
 H         -3.6241383248        1.2045664134        0.8827208109
 H         -2.8605908986        2.5300790203       -0.0022700549
  24
  -31.8182187100000       9.849212432944197E-002 !md4
 C         -3.0375916674       -1.4578801688        0.0004922593
 C         -1.7404182500       -0.7097763537       -0.0002520696
 C         -0.5471166691       -1.3826718026       -0.0006457497
 C          0.6905610227       -0.7088860317       -0.0004942836
 C          1.9239155256       -1.3922133259        0.0000414659
 C          3.1039734956       -0.7019374022        0.0006978253
 C          3.1040078750        0.7019245919        0.0004176658
 C          1.9239508676        1.3922180363       -0.0003023813
 C          0.6905982328        0.7089171054       -0.0005406442
 C         -0.5470658580        1.3826997350       -0.0006602116
 C         -1.7403846648        0.7098321522       -0.0002787864
 C         -3.0376797108        1.4577874691        0.0009387660
 H         -3.6247991571       -1.2036257544        0.8815718408
 H         -3.6278310877       -1.2007026755       -0.8776329748
 H         -2.8606097509       -2.5300202885       -0.0018280151
 H         -0.5392263378       -2.4642424743       -0.0006766676
 H          1.9190382132       -2.4730438666        0.0002909912
 H          4.0456201890       -1.2311761266        0.0013047915
 H          4.0457072585        1.2310135427        0.0007070355
 H          1.9190273177        2.4730690412       -0.0004632643
 H         -0.5393123410        2.4642729831       -0.0007709052
 H         -2.8605522464        2.5298702788       -0.0061484393
 H         -3.6305198616        1.1969604184       -0.8744081761
 H         -3.6221316816        1.2074580274        0.8850387796
  24
  -31.8160862100000       1.031269942310938E-002 !gc
 C         -3.0201655140       -1.5013424235        0.0033325978
 C         -1.7477836398       -0.7030025016       -0.0007596494
 C         -0.5515351794       -1.3754595097       -0.0016982137
 C          0.6870929370       -0.7076218942       -0.0015697187
 C          1.9198536120       -1.3930567879       -0.0012609960
 C          3.1001703887       -0.7038355233        0.0006916291
 C          3.1017859276        0.7004847739        0.0019789660
 C          1.9230178818        1.3924861065        0.0007716861
 C          0.6886963079        0.7102490174       -0.0009471818
 C         -0.5482100851        1.3829504317       -0.0013805761
 C         -1.7464354683        0.7150379187       -0.0009539716
 C         -3.0304225512        1.4906132027        0.0002303063
 H         -3.0614313224       -2.1249626731        0.8952716162
 H         -3.9021384298       -0.8722316006       -0.0175847431
 H         -3.0450290592       -2.1614426863       -0.8623408389
 H         -0.5504748841       -2.4571661815       -0.0019743527
 H          1.9134562158       -2.4738437377       -0.0020675467
 H          4.0414727686       -1.2336751232        0.0016485513
 H          4.0442883163        1.2281835473        0.0039981249
 H          1.9195263703        2.4733317042        0.0015549727
 H         -0.5378718291        2.4645376505       -0.0012870910
 H         -3.6233794839        1.2550226776       -0.8822068140
 H         -3.6216054706        1.2549612301        0.8838005990
 H         -2.8250641262        2.5578752715       -0.0001611429
  24
  -31.8160858800000       1.030909881283435E-002 !gc
 C         -3.0201595073       -1.5013598182        0.0001006391
 C         -1.7477850454       -0.7029830622       -0.0007282103
 C         -0.5515195316       -1.3754518294       -0.0004866489
 C          0.6870850449       -0.7076169871       -0.0000600998
 C          1.9198552663       -1.3930599547        0.0005260513
 C          3.1001705021       -0.7038509947        0.0005073399
 C          3.1017823132        0.7004768544       -0.0001928590
 C          1.9230287431        1.3924869941       -0.0005013795
 C          0.6886834484        0.7102699040       -0.0003046791
 C         -0.5481981353        1.3829703535       -0.0001812983
 C         -1.7464337872        0.7150437850       -0.0001532529
 C         -3.0304362212        1.4905993816        0.0009363472
 H         -3.9021401647       -0.8722395911       -0.0189625652
 H         -3.0445937312       -2.1583245489       -0.8679947978
 H         -3.0618208757       -2.1282164719        0.8897208369
 H         -0.5505271547       -2.4571571477       -0.0004894714
 H          1.9134173387       -2.4738459012        0.0009113263
 H          4.0414779886       -1.2336825797        0.0008550154
 H          4.0442953758        1.2281607649       -0.0003651998
 H          1.9195633405        2.4733324862       -0.0008352287
 H         -0.5378805950        2.4645600737       -0.0001520325
 H         -3.6229041171        1.2558717219       -0.8820443666
 H         -3.6220890227        1.2539902546        0.8839751855
 H         -2.8251502875        2.5578810460        0.0017931671
  24
  -31.8160858400000       1.030866246066462E-002 !gc
 C         -3.0201535911       -1.5013645688       -0.0001170861
 C         -1.7477830992       -0.7029822270       -0.0007530892
 C         -0.5515167979       -1.3754512735       -0.0004557694
 C          0.6870850963       -0.7076116297       -0.0000069529
 C          1.9198512753       -1.3930596617        0.0006736928
 C          3.1001703648       -0.7038564364        0.0005835032
 C          3.1017813029        0.7004712098       -0.0002974581
 C          1.9230301023        1.3924840088       -0.0006429865
 C          0.6886809427        0.7102739085       -0.0003401188
 C         -0.5482000366        1.3829746569       -0.0001747699
 C         -1.7464338714        0.7150487727       -0.0001050959
 C         -3.0304431721        1.4905961586        0.0011124833
 H         -3.9021365010       -0.8722310370       -0.0189344505
 H         -3.0446336217       -2.1580416056       -0.8684349854
 H         -3.0617722813       -2.1285264111        0.8892872571
 H         -0.5505190431       -2.4571552172       -0.0004568288
 H          1.9134040607       -2.4738451866        0.0011950546
 H          4.0414755582       -1.2336914968        0.0010129500
 H          4.0442965905        1.2281508505       -0.0005695628
 H          1.9195716925        2.4733296529       -0.0010964936
 H         -0.5378862345        2.4645646590       -0.0001329800
 H         -3.6221497103        1.2537264392        0.8840218613
 H         -2.8251415618        2.5578885276        0.0023396893
 H         -3.6228063445        1.2561812855       -0.8819912796
  24
  -31.8160852400000       1.030211939397419E-002 !gc
 C         -3.0200843357       -1.5013676665        0.0010249316
 C         -1.7477876531       -0.7029602174       -0.0006500143
 C         -0.5515636482       -1.3754270065       -0.0009221424
 C          0.6871103810       -0.7076259775       -0.0006502575
 C          1.9198152302       -1.3930815244       -0.0000141107
 C          3.1001463838       -0.7038282202        0.0007563610
 C          3.1017815308        0.7004575441        0.0006000461
 C          1.9229977381        1.3924930589       -0.0002272554
 C          0.6887232601        0.7102439138       -0.0006746534
 C         -0.5482293335        1.3829476266       -0.0007143518
 C         -1.7464555588        0.7150766894       -0.0003573863
 C         -3.0304445733        1.4905866632        0.0009440690
 H         -3.0468378971       -2.1553329631       -0.8692013632
 H         -3.0592203942       -2.1311444916        0.8886025609
 H         -3.9020644446       -0.8721631707       -0.0135828505
 H         -0.5504020390       -2.4571348544       -0.0009786179
 H          1.9135088157       -2.4738679066        0.0000507229
 H          4.0414252422       -1.2337174454        0.0015469121
 H          4.0442676521        1.2281741757        0.0012528177
 H          1.9195130841        2.4733337645       -0.0003117984
 H         -0.5377960836        2.4645417867       -0.0007227809
 H         -3.6217970005        1.2543134393        0.8842087211
 H         -2.8250684929        2.5578189046        0.0014639863
 H         -3.6231216172        1.2556249702       -0.8817847022
  24
  -31.8160850100000       1.029961231965688E-002 !gc
 C         -3.0201548436       -1.5013462184        0.0045033809
 C         -1.7477846810       -0.7030099610       -0.0005394191
 C         -0.5515515088       -1.3754568422       -0.0019995893
 C          0.6870991190       -0.7076236163       -0.0020540573
 C          1.9198480409       -1.3930547470       -0.0020504737
 C          3.1001686651       -0.7038261098        0.0005252579
 C          3.1017871805        0.7004867865        0.0027004229
 C          1.9230067900        1.3924822667        0.0014179305
 C          0.6887058430        0.7102330181       -0.0009749096
 C         -0.5482239511        1.3829318424       -0.0016002806
 C         -1.7464421188        0.7150390149       -0.0011804456
 C         -3.0304157762        1.4906334382       -0.0004793889
 H         -3.0585170662       -2.1284325039        0.8941164608
 H         -3.9021602850       -0.8721287413       -0.0111114703
 H         -3.0478215353       -2.1580869389       -0.8636477841
 H         -0.5504412021       -2.4571650999       -0.0022975760
 H          1.9134808806       -2.4738421530       -0.0034979262
 H          4.0414652504       -1.2336751970        0.0013865885
 H          4.0442810477        1.2281951190        0.0054599968
 H          1.9194943087        2.4733275342        0.0027904955
 H         -0.5378704744        2.4645172394       -0.0015964089
 H         -3.6208422003        1.2568539582        0.8840842228
 H         -2.8249441701        2.5578681477       -0.0031488093
 H         -3.6241150082        1.2533248196       -0.8819028942
  24
  -31.8160849500000       1.029895840064209E-002 !mtd11
 C         -3.0302900225       -1.4908577350        0.0005189949
 C         -1.7465001893       -0.7149946175       -0.0002639477
 C         -0.5482604347       -1.3828521826        0.0001637900
 C          0.6886996417       -0.7101763194        0.0001549492
 C          1.9229770207       -1.3924672783       -0.0002550485
 C          3.1017745903       -0.7005204834       -0.0005132746
 C          3.1001667862        0.7038062809        0.0000111652
 C          1.9198707653        1.3930496411        0.0004876147
 C          0.6870977622        0.7076414241        0.0003056303
 C         -0.5515685962        1.3754524864       -0.0000958217
 C         -1.7478208155        0.7030275542       -0.0005988769
 C         -3.0201481936        1.5014429415       -0.0001516606
 H         -2.8245375225       -2.5580579044       -0.0007856639
 H         -3.6211385269       -1.2563378251        0.8845274876
 H         -3.6236372103       -1.2545382304       -0.8813909201
 H         -0.5379472460       -2.4644363258        0.0006664064
 H          1.9193714228       -2.4733097508       -0.0005812179
 H          4.0442498540       -1.2282439795       -0.0012431605
 H          4.0414701273        1.2336253501       -0.0000838666
 H          1.9135017725        2.4738372297        0.0008802473
 H         -0.5504189964        2.4571718177       -0.0002244448
 H         -3.0595451237        2.1325721278        0.8864466528
 H         -3.0467069976        2.1542526935       -0.8713059835
 H         -3.9021223695        0.8722249781       -0.0140873712
  24
  -31.8160846200000       1.029536258799219E-002 !gc
 C         -3.0201565941       -1.5013708752        0.0002540539
 C         -1.7477892283       -0.7030098461       -0.0002080826
 C         -0.5515572321       -1.3754527022        0.0000122720
 C          0.6871014697       -0.7076258973        0.0001424584
 C          1.9198472459       -1.3930558058       -0.0000101752
 C          3.1001669947       -0.7038217046       -0.0002740278
 C          3.1017871731        0.7004904273       -0.0002265415
 C          1.9230027987        1.3924842130        0.0001495658
 C          0.6887100177        0.7102284341        0.0002562882
 C         -0.5482263674        1.3829257062        0.0002865022
 C         -1.7464458278        0.7150413279       -0.0000570812
 C         -3.0304060028        1.4906576649       -0.0003421714
 H         -3.9021576560       -0.8720624609       -0.0093117845
 H         -3.0488505271       -2.1509475935       -0.8732826285
 H         -3.0574422870       -2.1357672798        0.8846472390
 H         -0.5504356944       -2.4571623740        0.0001191212
 H          1.9134926638       -2.4738437276       -0.0001591912
 H          4.0414623276       -1.2336735807       -0.0007113813
 H          4.0442768853        1.2282060611       -0.0004328031
 H          1.9194836135        2.4733299164        0.0003527783
 H         -0.5378627276        2.4645116270        0.0002836621
 H         -2.8249095043        2.5578902202       -0.0003188470
 H         -3.6222874484        1.2551932454       -0.8834871488
 H         -3.6226610517        1.2550574591        0.8825028456
  24
  -31.8160845900000       1.029503575816547E-002 !gc
 C         -3.0200751929       -1.5013766299        0.0031145346
 C         -1.7477899915       -0.7029556184       -0.0003216891
 C         -0.5515623824       -1.3754247030       -0.0011747285
 C          0.6871091820       -0.7076254508       -0.0011998884
 C          1.9198154214       -1.3930825855       -0.0014530999
 C          3.1001447575       -0.7038304391       -0.0000421857
 C          3.1017793600        0.7004562021        0.0015386896
 C          1.9229980347        1.3924930496        0.0012005633
 C          0.6887212873        0.7102448272       -0.0002657455
 C         -0.5482290358        1.3829476795       -0.0006364406
 C         -1.7464596553        0.7150760256       -0.0007784933
 C         -3.0304446558        1.4905944538       -0.0009549420
 H         -3.0486842952       -2.1545462693       -0.8676431349
 H         -3.0573050516       -2.1319594782        0.8902007682
 H         -3.9020932453       -0.8721735650       -0.0089445867
 H         -0.5504062840       -2.4571320481       -0.0011686689
 H          1.9135062789       -2.4738683411       -0.0026687713
 H          4.0414247608       -1.2337185574       -0.0000618138
 H          4.0442663342        1.2281703118        0.0031443939
 H          1.9195139904        2.4733331541        0.0024083166
 H         -0.5377966280        2.4645414980       -0.0007376525
 H         -2.8250754004        2.5578183926       -0.0052873206
 H         -3.6243949861        1.2518911109       -0.8818135312
 H         -3.6205213308        1.2580670286        0.8841721718
  24
  -31.8160844100000       1.029307499723021E-002 !gc
 C         -3.0201490032       -1.5013616947        0.0043772131
 C         -1.7477887525       -0.7030076439       -0.0002183945
 C         -0.5515581891       -1.3754518670       -0.0015486567
 C          0.6871012405       -0.7076245129       -0.0017565600
 C          1.9198468774       -1.3930550795       -0.0022733263
 C          3.1001656368       -0.7038227778       -0.0000764832
 C          3.1017871576        0.7004890923        0.0024661582
 C          1.9230038099        1.3924823024        0.0017933116
 C          0.6887106716        0.7102257761       -0.0004864126
 C         -0.5482274380        1.3829245622       -0.0011409323
 C         -1.7464474126        0.7150398229       -0.0010799285
 C         -3.0304099442        1.4906496314       -0.0013471803
 H         -3.0566443440       -2.1319817811        0.8915372853
 H         -3.9021681177       -0.8720841701       -0.0069498030
 H         -3.0496293267       -2.1546504542       -0.8663314726
 H         -0.5504299487       -2.4571608940       -0.0018013181
 H          1.9134931234       -2.4738429413       -0.0039923468
 H          4.0414608111       -1.2336746540        0.0001215400
 H          4.0442774463        1.2282020446        0.0049239922
 H          1.9194799703        2.4733275150        0.0034158299
 H         -0.5378642361        2.4645085009       -0.0011404293
 H         -2.8249121690        2.5578753687       -0.0048639555
 H         -3.6238335895        1.2525831487       -0.8827560246
 H         -3.6211234899        1.2576695236        0.8832236495
  24
  -31.8160840500000       1.028915459564879E-002 !gc
 C         -3.0303969737       -1.4907429764       -0.0014288050
 C         -1.7464987946       -0.7150615047       -0.0006164182
 C         -0.5482368241       -1.3829220230       -0.0002850853
 C          0.6886978409       -0.7102439087        0.0000919835
 C          1.9230052838       -1.3924775824        0.0013578486
 C          3.1017686224       -0.7004577639        0.0012432731
 C          3.1001404299        0.7038677971       -0.0004619754
 C          1.9198279534        1.3930859459       -0.0015019745
 C          0.6870946905        0.7076214406       -0.0008990615
 C         -0.5515527692        1.3753862045       -0.0006706856
 C         -1.7478128965        0.7029164783        0.0000543938
 C         -3.0200350898        1.5015135826        0.0025988996
 H         -3.6207753208       -1.2588466852        0.8836512167
 H         -3.6241816117       -1.2516494883       -0.8822667831
 H         -2.8248189750       -2.5579258094       -0.0062192433
 H         -0.5378889846       -2.4645098209       -0.0003643888
 H          1.9195010306       -2.4733241080        0.0025288766
 H          4.0442656057       -1.2281509822        0.0024186299
 H          4.0414338193        1.2337200718       -0.0008915180
 H          1.9134144125        2.4738736271       -0.0027086087
 H         -0.5505364809        2.4571016986       -0.0007115422
 H         -3.9021953043        0.8723509262       -0.0022459414
 H         -3.0540888585        2.1381135420        0.8854666945
 H         -3.0516277864        2.1487939876       -0.8724891458
  24
  -31.8160834400000       1.028251510127137E-002 !md1
 C         -3.0303163857       -1.4909109122        0.0034736297
 C         -1.7465122562       -0.7149998990        0.0011215448
 C         -0.5482753657       -1.3828153118       -0.0000411248
 C          0.6887305078       -0.7101552330       -0.0008382887
 C          1.9229701886       -1.3924913863       -0.0027798865
 C          3.1017619628       -0.7005128090       -0.0018123057
 C          3.1001728197        0.7038069464        0.0015004268
 C          1.9198559280        1.3930401354        0.0026782817
 C          0.6871157474        0.7076669209        0.0010916299
 C         -0.5515731932        1.3754564790        0.0006203082
 C         -1.7478115903        0.7030385138       -0.0002081865
 C         -3.0201227939        1.5014506839       -0.0042966036
 H         -2.8244308804       -2.5579529499        0.0127579182
 H         -3.6251409522       -1.2486633060        0.8825683087
 H         -3.6197103686       -1.2625681681       -0.8832001256
 H         -0.5379047813       -2.4643845878       -0.0001261582
 H          1.9192362826       -2.4733351940       -0.0050394483
 H          4.0441896292       -1.2283210326       -0.0034345917
 H          4.0414693396        1.2336370338        0.0028025378
 H          1.9135950994        2.4738251561        0.0048387585
 H         -0.5504816660        2.4572413229        0.0003611777
 H         -3.9021869051        0.8721155922        0.0031257381
 H         -3.0511576496        2.1517953500        0.8685509813
 H         -3.0549052483        2.1351038353       -0.8892758427
