! r2scan-3c def2/J RI DEFGRID2 scfconv6 printgap
%output
    printlevel normal
end
%cpcm
    smd true
    smdsolvent "water"
end
* xyz 0 1
C -0.4615616085 -0.5974724715 -5.8405e-06
C 0.4614034745 0.597096472 -1.15306e-05
Br 2.3243872939 -0.0222122856 1.1573e-06
Br -2.3243530535 0.0222770746 1.7291e-06
H -0.3368857199 -1.2093621287 0.8929670839
H -0.3369647069 -1.2094288073 -0.8929466987
H 0.3364613735 1.2090365204 -0.8928722718
H 0.3365590195 1.2090987811 0.8928300636
*
