! pbe def2-sv(p) def2/J RI DEFGRID1 loosescf d4 GCP(DFT/SV(P)) printgap
%output
    printlevel normal
end
* xyz 0 1
C 4.9611631981 1.2340089614 -0.4221123211
C 4.3003319059 0.1961330066 -1.3042979496
O 3.46110573 -0.7126907493 -0.5668137186
P 2.2803042791 -0.2872099242 0.4056851792
S 2.7285235122 0.3682695088 2.1918471381
O 1.4556507807 -1.6254661162 0.5264068602
C 1.1537927481 -2.4963892642 -0.5901775959
C 2.1356084793 -3.6474084178 -0.6433005675
S 1.1448983787 1.0603280178 -0.8076113912
C 0.2576608926 1.8560382114 0.5501968199
S -0.8790107678 0.7549837251 1.4360852824
P -2.252169701 0.3493181531 -0.1351785267
S -1.7676706265 -0.8667454363 -1.5995516549
O -2.5711017465 1.8266932019 -0.6100248695
C -3.108503335 2.1077993006 -1.9189583401
C -4.5583634034 1.6839803594 -2.0153500694
O -3.5762376433 -0.0436898153 0.6521358564
C -3.668428326 -1.0019039676 1.7203005418
C -2.9103484808 -2.2823917218 1.4360497365
H 4.2099777469 1.8906541208 0.0143271131
H 5.5058964159 0.7529478468 0.3867454235
H 5.6481132627 1.8271930852 -1.0170041642
H 5.0385067144 -0.4587387215 -1.7706890511
H 3.6897723182 0.6744347351 -2.0754141951
H 0.1364848995 -2.847882277 -0.4065268326
H 1.1626952824 -1.9151643842 -1.516087524
H 3.1416206783 -3.2762609375 -0.8202918148
H 2.1220842503 -4.1885949699 0.2987530688
H 1.8503210163 -4.3170769297 -1.4483877517
H -0.2936894211 2.6918151351 0.1276040821
H 0.9764007525 2.1868480879 1.3015182806
H -2.9900943091 3.1863731097 -2.02901164
H -2.5011027542 1.5861791744 -2.6659374823
H -4.6306398675 0.6036363255 -1.8942089473
H -5.1431466741 2.1626781125 -1.2345616735
H -4.9531436344 1.9603990176 -2.9878553384
H -3.293103122 -0.5271430623 2.6315815894
H -4.7405263496 -1.1852738908 1.8126059256
H -1.8406142773 -2.0763928527 1.3788726054
H -3.0869618368 -2.9925668137 2.2376285975
H -3.2346695958 -2.7148524791 0.4920176566
*
