! pbe def2-sv(p) def2/J RI DEFGRID1 loosescf d4 GCP(DFT/SV(P)) printgap
%output
    printlevel normal
end
* xyz 0 1
C 4.5446602483 -0.9145814822 -2.1909225244
C 3.2226695753 -1.6258759921 -1.9963842353
O 2.7281752052 -1.440626915 -0.6554614779
P 2.1203050445 -0.0625958151 -0.1629744916
S 1.3051001959 0.9893464738 -1.6099772413
O 3.3684022403 0.6249786152 0.541168244
C 3.3057583461 1.5968569164 1.5987818683
C 2.4091654265 2.7724934204 1.2691780321
S 1.0108238342 -0.7721073309 1.5024989703
C 0.0651296141 -2.0901121144 0.6886945283
S -0.9209079298 -1.5517788096 -0.7359822508
P -2.1147464266 -0.0718993267 0.2084828505
S -1.3898869187 1.6587116837 0.7953240754
O -2.6864594037 -0.9468243907 1.3998246176
C -3.2310082757 -0.3532465839 2.5947939048
C -4.5863818718 0.2648221253 2.3257441354
O -3.3623222936 0.0194764453 -0.7720085763
C -3.3013906137 0.2144230285 -2.1950423328
C -2.4972934326 1.4359032557 -2.5900302382
H 4.3997321066 0.1589307897 -2.0734297143
H 5.2662164784 -1.2522312396 -1.4519664368
H 4.9221517652 -1.1157798541 -3.1883822836
H 3.3214756039 -2.7073119601 -2.0968593444
H 2.4726749696 -1.2505213158 -2.7004383871
H 2.9610443084 1.0918308236 2.5061386099
H 4.344513309 1.9098000204 1.7202731077
H 1.371676629 2.4486214405 1.1763527494
H 2.4714910773 3.5094554222 2.0632823804
H 2.7103433031 3.2294882665 0.3292367172
H -0.5928890711 -2.5006104221 1.4513975143
H 0.749603816 -2.8455835969 0.3093184826
H -3.2929137302 -1.1829096542 3.2999345673
H -2.5269744903 0.4004984567 2.962631645
H -4.9984586066 0.6538856177 3.2513508711
H -4.4777146575 1.080913158 1.6120317245
H -5.2620666515 -0.4765312037 1.9079286233
H -2.8783440675 -0.6882069627 -2.6461618805
H -4.3492457951 0.3169138882 -2.4835169747
H -1.4479159869 1.3065090086 -2.3225627977
H -2.5647170901 1.58233177 -3.6631466769
H -2.8737865542 2.3204481313 -2.081358643
*
