! pbe def2-sv(p) def2/J RI DEFGRID1 loosescf d4 GCP(DFT/SV(P)) printgap
%output
    printlevel normal
end
* xyz 0 1
C 2.9568550776 -3.8926729748 -0.5309094608
C 1.5506666901 -3.3274493608 -0.6499484866
O 1.5327389956 -2.146013406 -1.4720701365
C 1.8505295624 -0.9903402682 -0.9378358852
O 2.1638641669 -0.8182898754 0.2240987627
C 1.7358063765 0.1457716474 -1.9365627507
C 0.6139319864 1.0869076267 -1.4763581022
H 0.5810978657 1.973943369 -2.111300286
C 0.8493069171 1.4896356237 -0.0378940125
O 0.170037441 1.0684879984 0.88348696
O 1.8370347123 2.3184344074 0.0893724067
C 2.2104819984 2.7461122145 1.4200118274
C 3.0887365999 3.9731614023 1.2834360169
S -1.0137206546 0.2684369481 -1.6174378181
P -1.7732698208 -0.1290999564 0.3325432858
S -2.6186931653 1.2471073663 1.4634086719
O -2.922685203 -1.1273525313 -0.2043565993
C -4.102385763 -0.6553449952 -0.8546366475
O -0.9407309911 -1.3093424685 1.0075319513
C -0.3476211339 -1.2343684667 2.3052995835
H 3.603134516 -3.1866800118 -0.0142360287
H 2.9226106507 -4.8174730846 0.0353188607
H 3.3639098827 -4.0913527517 -1.5184296913
H 1.1435725012 -3.0743629602 0.3332975485
H 0.8826165134 -4.0195732489 -1.1626497692
H 1.5036888741 -0.2529467945 -2.9221994766
H 2.6747019066 0.7014226489 -1.9538131704
H 1.2974686763 2.9506761142 1.9870415387
H 2.7392066045 1.9141557143 1.8942505063
H 2.5399729574 4.7754233023 0.7994740869
H 3.3983728904 4.2988161875 2.2707314132
H 3.9676502921 3.7383126778 0.6914118627
H -3.8827572932 -0.3973548158 -1.8909151911
H -4.4961515339 0.2176811643 -0.3292152532
H -4.8134970895 -1.4764770667 -0.8071719123
H -0.5706378591 -2.1782787381 2.7985011615
H -0.7693165634 -0.4013742534 2.8699935133
H 0.7283357545 -1.0949751715 2.1946153285
*
