! r2scan-3c def2/J RI DEFGRID2 scfconv6 printgap
%output
    printlevel normal
end
* xyz 0 1
C 4.2362355991 -0.7282823282 -2.65683321
C 4.855043598 -0.7178516739 -1.2742874427
O 3.8898793597 -0.9789276336 -0.2386467653
P 2.680751854 0.0030695228 0.0841740291
S 3.0767165893 1.9160915721 0.0375148763
O 2.2527860386 -0.4693616864 1.5251444211
C 1.9582782679 -1.8513870514 1.8533624699
C 0.9985229644 -1.8556602282 3.0253287224
S 1.1247402267 -0.6567404249 -1.2158048829
C 0.0287279721 0.7486466234 -0.9159755426
S -0.7922000821 0.6785732893 0.7026556488
P -2.7894980287 0.2195622793 0.0920763321
S -3.1510101753 0.3001097991 -1.8372478512
O -3.6868749848 1.1431763661 1.0141741119
C -4.0862159619 2.4678731832 0.6217618331
C -2.9153323639 3.4259449031 0.5237672602
O -3.1607325264 -1.1381092322 0.8160555448
C -3.0554371728 -2.4189139072 0.1675933757
C -1.6189673597 -2.891702556 0.0710364703
H 5.0231860976 -0.6595350877 -3.4010145956
H 3.6699869412 -1.6432082115 -2.8126213404
H 3.5680010894 0.1237163899 -2.7731649582
H 5.3250635728 0.2490391012 -1.0705605945
H 5.5853705936 -1.5192021429 -1.1533328729
H 1.5255853783 -2.337021416 0.9733275318
H 2.9029558663 -2.3372127083 2.1040209452
H 0.0787135985 -1.3388164657 2.7611191562
H 0.7748031436 -2.881463491 3.3008396963
H 1.4458814832 -1.3447078188 3.8729402565
H -0.7299287785 0.7414866484 -1.7023348007
H 0.6256694609 1.6607881965 -0.944030508
H -4.6089453501 2.4025775682 -0.3379379881
H -4.7852685835 2.7698223861 1.4029674676
H -2.2726266797 3.1501737738 -0.3117804395
H -3.2885907788 4.4317838079 0.3591357535
H -2.3297134285 3.4052610422 1.4398048204
H -3.6532361222 -3.0795580242 0.7972187698
H -3.5072979467 -2.3469943422 -0.8271742843
H -1.0554698128 -2.2508569277 -0.6066707549
H -1.1520685043 -2.8732199291 1.0522087061
H -1.6013745848 -3.9055505098 -0.3157571322
*
