! wb97x-v def2-tzvp def2/J RIJCOSX DEFGRID2 scfconv7 GCP(DFT/TZ) printgap
%output
    printlevel normal
end
* xyz 0 1
C 2.619787860164603 -2.8092314084475362e-05 0.45697858167023137
N 1.3648446795774682 -4.9607574344821134e-05 -0.29613612417058083
C 0.5812624825395382 1.192767670906993 0.06854517890369859
C -0.7661583700824273 1.1956650395576878 -0.6443933116047377
N -1.5937168165908495 -2.2290377945531572e-05 -0.39196940064897257
C -0.7661762752491675 -1.195743159327908 -0.6442948868554133
C 0.5812285460938353 -1.1928066032496796 0.06866877273373755
C -2.129531628472306 3.423773937841124e-05 0.976214683816112
H 3.20924580039274 -0.887280816450478 0.20279869375018195
H 2.4549087615370158 1.4840986851047201e-05 1.5504133285528225
H 3.2092548708343505 0.8871979378353547 0.20272954704711227
H 0.43739345581893196 1.2470814338924119 1.1649181928186327
H 1.1405019664451832 2.0891628738234553 -0.22472719161932184
H -1.3327235084576667 2.0842627677260723 -0.3446164350032071
H -0.5938860591169011 1.267767526784179 -1.7262795834171634
H -1.3327633979114584 -2.0843113634762886 -0.3444699520613348
H -0.593881773694791 -1.267921642813807 -1.7261734741535837
H 0.43733306760383944 -1.2469853906042416 1.1650450993957866
H 1.1404535179194966 -2.0892497431097707 -0.22448308938005254
H -2.758362503522728 -0.88538572951739 1.1165563850280573
H -2.758325626677009 0.8854886509865065 1.116499148356154
H -1.3707330381211509 4.4130866365514024e-05 1.7731526264914554
*
