! pbe def2-sv(p) def2/J RI DEFGRID1 loosescf d4 GCP(DFT/SV(P)) printgap
%output
    printlevel normal
end
* xyz 0 1
C 1.0857166979 0.2447054155 3.1618093193
C 2.2719935881 0.6108458338 2.29308071
O 2.7937953959 -0.5320363522 1.5918721792
P 2.2019525588 -1.1406814453 0.246606413
S 0.4623501036 -2.0421005422 0.321639622
O 3.3124237615 -2.1879621495 -0.1307424203
C 4.7388449998 -2.0190696929 0.0653244864
C 5.3080211136 -0.8831993671 -0.7573673129
S 2.3341165787 0.4593387439 -1.1704426708
C 0.5908358489 0.6918286181 -1.5415870353
S -0.3101912919 1.3794907012 -0.1129472496
P -2.2720260269 0.7318048716 -0.6446291398
S -2.3804176347 -0.7299821625 -1.938291987
O -2.9793756749 2.022402873 -1.2052860406
C -3.0523074318 3.2823845189 -0.4911745447
C -4.3437171957 3.3899305873 0.2930120076
O -2.9767564462 0.535115659 0.7656332318
C -2.7916364491 -0.6384434428 1.5818918243
C -3.9540043907 -1.5935483747 1.3976626038
H 0.2582252837 -0.0951286984 2.5432161582
H 1.3537766651 -0.552417929 3.849789732
H 0.7714020236 1.1185593386 3.722623777
H 3.1142538486 0.9539247439 2.896788873
H 1.9976976118 1.3834529948 1.5676067711
H 4.9191459826 -1.8635655962 1.130167191
H 5.1453072681 -2.9830378628 -0.2445004366
H 6.3870964354 -0.8675267413 -0.6392238855
H 5.0650093222 -1.0162506538 -1.8084351754
H 4.9014339937 0.0703768827 -0.4246536497
H 0.128909457 -0.2632266344 -1.8059441617
H 0.5465287998 1.3940711029 -2.3707749655
H -2.1803498607 3.3673735984 0.163930127
H -3.0007479819 4.0379255607 -1.2771440854
H -4.3772319641 2.6341432848 1.0726114606
H -4.4019596306 4.3752197866 0.7449454091
H -5.1932316952 3.2478536463 -0.3693753388
H -1.8500605857 -1.1289590979 1.3196697159
H -2.7394292162 -0.2640297782 2.6060180518
H -4.8917122334 -1.0954458257 1.6272478768
H -3.9841150351 -1.9467978179 0.3687922326
H -3.8233228119 -2.4452210552 2.0572166955
*
