! pbe def2-sv(p) def2/J RI DEFGRID1 loosescf d4 GCP(DFT/SV(P)) printgap
%output
    printlevel normal
end
* xyz 0 1
C 1.4683019157 -0.6449925344 -2.84950711
C 2.143572034 0.5602503589 -2.2253060382
O 2.9627706143 0.1827972293 -1.1095218191
P 2.4278219442 0.0331110024 0.3722463751
S 1.2125951272 1.4661308657 0.9592387458
O 3.8663423084 -0.0105873985 1.0222874857
C 4.1811969444 -0.6023039624 2.2961807741
C 3.3614103608 -0.0201641014 3.4298947338
S 1.6739679669 -1.9446281608 0.6118683186
C -0.0170264732 -1.5937152335 1.1639382621
S -1.2733211083 -1.7585267795 -0.1485128484
P -2.0801053686 0.1913232332 -0.3573232837
S -1.3205432737 1.4690590438 -1.6443018877
O -2.1180927634 0.614301341 1.1669644792
C -2.2493671828 1.9880352583 1.5806656079
C -3.5993490106 2.5618341208 1.2087870214
O -3.6134155052 -0.1225895807 -0.6506119799
C -4.1188854291 -0.2832522068 -1.9837634156
C -3.6184380888 -1.5637925553 -2.6205984797
H 2.2065382949 -1.4020770274 -3.0985536057
H 0.7401854 -1.0758150935 -2.1638202164
H 0.9478940968 -0.3298896516 -3.7484517603
H 1.4022200614 1.30040565 -1.9034347419
H 2.8375448479 1.0297730346 -2.9243500919
H 4.0306269026 -1.6827794005 2.2211208245
H 5.2434388128 -0.3855444942 2.4213352474
H 3.7050257842 -0.4328457794 4.3729479985
H 3.4621496663 1.0625476847 3.4520288963
H 2.3080543795 -0.2642730752 3.2973355342
H -0.0573712197 -0.5792907576 1.5656823453
H -0.2580916543 -2.3373573199 1.9177411902
H -2.1059678678 1.9479110181 2.6613252677
H -1.4355414417 2.5651901739 1.1288108187
H -4.3940971586 1.9270645323 1.5919119953
H -3.6935708334 3.5581724359 1.6289942072
H -3.6888080123 2.6252997617 0.1249111442
H -5.2023838789 -0.2887422198 -1.8588750245
H -3.8151254364 0.5856805395 -2.5775641261
H -4.0788067543 -1.6888610361 -3.5952553131
H -2.5362262799 -1.5142297445 -2.7429313127
H -3.8576646742 -2.4179094117 -1.9925671355
*
