! r2scan-3c def2/J RI DEFGRID2 scfconv6 printgap
%output
    printlevel normal
end
%cpcm
    smd true
    smdsolvent "water"
end
* xyz 0 1
C -2.9038221737 -0.009329569 -0.0011694488
C -1.4049636325 0.0058231267 0.0020533231
C -0.692426678 1.1957866842 0.0011352154
C 0.6924376773 1.1957266275 -0.0007557707
C 1.4049628085 0.0057431183 -0.0020486066
C 0.6903484134 -1.188021948 -0.0007410559
C -0.6903695403 -1.1879643729 0.0012460099
C 2.9038325553 -0.009299782 0.0003737919
H -3.2792711453 -0.5883882978 0.8408213874
H -3.3022466518 0.9996549804 0.0626723642
H -3.2737514276 -0.4723353074 -0.9150682114
H -1.2241325648 2.1369274549 0.0022309888
H 1.2242310789 2.1368262115 -0.0012350028
H 1.2267367271 -2.1264109832 -0.0015957338
H -1.2268662818 -2.1262938665 0.0018770809
H 3.3021695271 0.9990649216 -0.0738341018
H 3.2743256488 -0.4628488135 0.9187828361
H 3.2788118832 -0.5970592026 -0.8357653359
*
