! pbe def2-sv(p) def2/J RI DEFGRID1 loosescf d4 GCP(DFT/SV(P)) printgap
%output
    printlevel normal
end
* xyz 0 1
C 4.2816409965 -1.1206127845 1.3951205248
C 4.7817017717 -0.5152658321 0.100873924
O 3.7731155908 -0.5090116531 -0.9405825571
P 2.3871358126 0.2394616412 -0.8793282351
S 1.6969634266 0.5650254013 -2.6825098194
O 2.7613452703 1.5222489895 -0.0188376157
C 1.885564568 2.6457765773 0.1812627921
C 1.2690874496 2.6025298051 1.5652855167
S 1.1280190571 -0.9591458699 0.3527619441
C -0.0349220999 -1.5847139654 -0.9046906568
S -1.6474798375 -1.9211731635 -0.1869824864
P -2.1188480775 0.0820974319 0.3854311513
S -1.479541204 1.5039114322 -0.8048808823
O -1.5362737746 0.330215541 1.8258828325
C -1.4317537927 -0.625451857 2.9120752289
C -2.7343751042 -1.3285588247 3.225047439
O -3.6816858641 0.0298141766 0.6567368229
C -4.6711195578 -0.5308770519 -0.2235702814
C -4.6120287894 0.0474254916 -1.6221516214
H 3.4802490399 -0.5125534068 1.8117999177
H 3.9048782001 -2.1259502797 1.2260147474
H 5.1013838904 -1.1599498383 2.1057236868
H 5.5845296305 -1.1091961506 -0.3385641434
H 5.1183607314 0.5117810677 0.2526867275
H 2.5243801756 3.522881919 0.0602261899
H 1.1148852673 2.6525518862 -0.5963677205
H 2.0468723141 2.5204465786 2.3191063188
H 0.7031864853 3.5146817388 1.7252268528
H 0.5911685942 1.7565570381 1.6548521956
H 0.3326049738 -2.5283161802 -1.3007461086
H -0.1215273853 -0.8314602007 -1.6935646813
H -0.6485044126 -1.3419998288 2.6470760272
H -1.0987715756 -0.009220661 3.7485867027
H -2.6020192767 -1.925193282 4.1223905198
H -3.5245606113 -0.6010194581 3.3906650392
H -3.0212779304 -1.9846945856 2.4059177934
H -4.5304041463 -1.6150863007 -0.2488181858
H -5.616393522 -0.2896363207 0.2657478563
H -3.6708310913 -0.2184479866 -2.1021707114
H -5.4322989135 -0.3475763098 -2.2127340388
H -4.6821555633 1.1322740676 -1.5880572184
*
