! r2scan-3c def2/J RI DEFGRID2 scfconv6 printgap
%output
    printlevel normal
end
* xyz 0 1
C 2.408200963 1.1490229698 2.95551e-05
C 1.2683292959 1.9123969214 2.31211e-05
C 5.5879e-06 1.2921754977 4.6533e-06
C -1.268320944 1.9124011959 -2.0706e-05
C -2.4081952768 1.1490334895 -4.67488e-05
C -2.3795189435 -0.2605345865 -4.6331e-06
C -1.1667327113 -0.8916101222 2.111e-05
C -5.0182e-06 -0.1098272097 3.8593e-06
C 1.1667270799 -0.891610156 -1.53963e-05
C 2.3795176144 -0.2605460088 4.6161e-06
C 0.7752284083 -2.3426821131 -0.0001182659
C -0.7752371291 -2.3426796164 0.00011632
H 3.3712009954 1.639655845 5.21417e-05
H 1.3331148316 2.9909209872 4.22245e-05
H -1.3330887688 2.9909261476 -1.53551e-05
H -3.3711903106 1.6396759623 -3.99209e-05
H -3.3080135523 -0.8121844043 1.40551e-05
H 3.3080101748 -0.8121955511 -1.54988e-05
H 1.1743567792 -2.849122778 -0.8800318882
H 1.1746618928 -2.8494005959 0.8794903628
H -1.1746705444 -2.8493988943 -0.8794935291
H -1.1743687056 -2.8491248418 0.8800273822
*
