! pbe def2-sv(p) def2/J RI DEFGRID1 loosescf d4 GCP(DFT/SV(P)) printgap
%output
    printlevel normal
end
* xyz 0 1
C 3.3757374697 -1.8393460068 -2.5625690856
C 4.0934202303 -0.5724038177 -2.1436434719
O 3.7296827739 -0.1393005462 -0.8215215633
P 2.2513561197 0.3142845321 -0.4152426951
S 1.3372123174 1.3668439009 -1.7834181445
O 2.5603706975 1.1244552037 0.8967111098
C 3.2055212918 0.5437589564 2.0569586475
C 2.8786509667 1.4177006195 3.2490051489
S 1.3162712579 -1.5010168384 0.20259847
C -0.1283554826 -1.5015126793 -0.9116545747
S -1.7210957755 -1.7308243492 -0.0799755951
P -2.1183117539 0.1922863136 0.7439510225
S -0.5497237979 1.1789051011 1.383793495
O -3.1332551301 -0.0830212279 1.9096392232
C -4.5492950776 -0.3630495527 1.758402351
C -4.8140589867 -1.6268229276 0.9697384329
O -3.0278500239 0.9869677522 -0.2984544196
C -2.5194155428 1.6086135942 -1.4906290688
C -2.776677839 0.7372433998 -2.7051464277
H 3.4924067244 -2.610108843 -1.8049116567
H 2.3158253664 -1.6331673969 -2.7032142593
H 3.7923920592 -2.1895513563 -3.5014612027
H 3.8748274138 0.2411608866 -2.8422030078
H 5.1718517557 -0.7231242677 -2.0758271448
H 2.8261677282 -0.4733082312 2.1957896747
H 4.2786381936 0.5074985917 1.8575795936
H 3.2560204686 2.4234965747 3.0890754137
H 1.7999334326 1.4701693275 3.3784729723
H 3.3312143353 0.9948441245 4.1398183903
H -0.0384380309 -2.3635456575 -1.5684417722
H -0.1168336279 -0.5649509265 -1.4762211297
H -4.8908287267 -0.4529097105 2.7906893462
H -5.0167339025 0.501900695 1.2847573525
H -4.2684106505 -2.4636768977 1.3983484524
H -5.8777933761 -1.8424351427 0.995670397
H -4.5038759029 -1.5008676884 -0.0651969496
H -3.0589861201 2.5548206184 -1.5658658672
H -1.4523040922 1.8230925509 -1.367314069
H -3.8433664924 0.5703752205 -2.8243301294
H -2.3882011871 1.2407081511 -3.5845953976
H -2.2800258738 -0.2245775818 -2.6040788988
*
