! pbe def2-sv(p) def2/J RI DEFGRID1 loosescf d4 GCP(DFT/SV(P)) printgap
%output
    printlevel normal
end
* xyz 0 1
C 4.2527562221 1.0849203069 -2.4612642959
C 4.4584861657 0.5011723684 -1.0779766764
O 3.5397622327 1.1071780771 -0.1343706632
P 2.2866208068 0.3571012159 0.477127664
S 1.432812116 1.5122022312 1.7980699043
O 2.8387510873 -1.0364573677 1.0322378469
C 2.8283201071 -1.4163705391 2.4250914999
C 1.7974808505 -2.4971397436 2.6818827779
S 1.2402051127 -0.2811705769 -1.2555542386
C 0.2365465405 -1.6097914045 -0.5326066386
S -0.9657053338 -1.0347377993 0.6912825974
P -2.2232056762 0.0183863719 -0.6696878001
S -2.314522 -0.7031350914 -2.4823248182
O -1.7038290005 1.5092461247 -0.6561072216
C -1.723196298 2.3568993132 0.5171189686
C -2.9547601971 3.2371667817 0.5240533295
O -3.6056038373 0.1228631246 0.1083224558
C -4.6206194174 -0.8951907999 0.0188535241
C -4.1803390425 -2.2103608343 0.6276850719
H 4.994482096 0.6705323058 -3.1366456842
H 3.2586678465 0.8439962336 -2.8327845672
H 4.3598654777 2.1656104536 -2.4282797085
H 5.4507075545 0.7411594447 -0.6921938219
H 4.312461035 -0.5812473337 -1.0754186214
H 3.8391189302 -1.7741363294 2.6282655545
H 2.6219713847 -0.5293092651 3.0320967041
H 1.9846056582 -3.3593307391 2.0474795585
H 1.8629947108 -2.8022639005 3.7212046299
H 0.7944087396 -2.1185758301 2.4904973292
H 0.88227224 -2.3294258511 -0.0369992795
H -0.293559688 -2.0590953765 -1.3733905149
H -1.6703624305 1.7330846151 1.4138963469
H -0.8083765421 2.9492183319 0.4461763079
H -2.8943198978 3.916911463 1.3681309969
H -3.004938539 3.8107365385 -0.3975560482
H -3.8525128203 2.6313892646 0.612457499
H -5.4654007204 -0.4650685722 0.5587497402
H -4.8801245714 -1.0270496513 -1.0358849928
H -3.8055980449 -2.0553559148 1.6364673604
H -5.0266462228 -2.889076503 0.6577042493
H -3.3927610713 -2.6566698234 0.0227381571
*
