  21
  -25.3810095100000       5.647600679245107E-002 !mtd6
 C         -2.5616246564       -0.8308415726       -0.9672299202
 C         -2.4829729717        0.4825498713       -0.1992790586
 C         -1.5079623603        0.4041522238        0.9838767109
 C         -0.0953529347        0.1939511014        0.5192162471
 C          0.5019511003       -1.0586132142        0.5780192488
 C          1.7927655924       -1.2500345400        0.1160393289
 C          2.5057204764       -0.1881222646       -0.4132464213
 C          1.9208574614        1.0658723206       -0.4754116574
 C          0.6311064146        1.2532531159       -0.0125342577
 H         -2.8959826753       -1.6344764383       -0.3148545811
 H         -3.2623101493       -0.7459532653       -1.7942849330
 H         -1.5857748652       -1.0965695431       -1.3679215527
 H         -3.4743374323        0.7414079467        0.1782222614
 H         -2.1623821601        1.2782853471       -0.8749756324
 H         -1.8078203392       -0.4148296302        1.6401598653
 H         -1.5679520146        1.3364008872        1.5498916986
 H         -0.0483331375       -1.8922207077        0.9905130372
 H          2.2431414746       -2.2304736234        0.1693552241
 H          3.5127816944       -0.3358678848       -0.7739646685
 H          2.4727906474        1.8996280070       -0.8843808720
 H          0.1808948682        2.2346646032       -0.0603995898
  21
  -25.3810094800000       5.647421394240130E-002 !mtd13
 C         -2.5592891806       -0.8291807023        0.9741534540
 C         -2.4823220299        0.4831571330        0.2042760158
 C         -1.5102133333        0.4029463271       -0.9810498592
 C         -0.0965903267        0.1932542537       -0.5192092984
 C          0.5014283261       -1.0588344453       -0.5802514413
 C          1.7932645674       -1.2497740904       -0.1209227090
 C          2.5065440283       -0.1879401122        0.4079061536
 C          1.9210587143        1.0656801626        0.4720823679
 C          0.6302921390        1.2526388402        0.0118355250
 H         -3.2567169105       -0.7425182511        1.8038048075
 H         -2.8968840921       -1.6333318883        0.3240482900
 H         -1.5821901287       -1.0953469743        1.3714347195
 H         -2.1599315783        1.2797041514        0.8780660506
 H         -3.4745359504        0.7416526452       -0.1712621586
 H         -1.5714579108        1.3342139226       -1.5484882774
 H         -1.8117957018       -0.4170720264       -1.6351754755
 H         -0.0491290622       -1.8924612576       -0.9922957119
 H          2.2440760677       -2.2299081731       -0.1756656168
 H          3.5143376376       -0.3354074140        0.7667006041
 H          2.4731812551        1.8993642527        0.8807702226
 H          0.1795186885        2.2337245480        0.0613133416
  21
  -25.3810094800000       5.647421394240130E-002 !gc
 C         -2.5616089490       -0.8304773172        0.9722713730
 C         -2.4828036789        0.4828937897        0.2043781743
 C         -1.5098357031        0.4037855154       -0.9803210114
 C         -0.0963526863        0.1935700442       -0.5182670724
 C          0.5014426569       -1.0585873298       -0.5796002166
 C          1.7935449870       -1.2496899067       -0.1210451866
 C          2.5072973506       -0.1879380880        0.4072955312
 C          1.9219551432        1.0657189654        0.4719501465
 C          0.6309233203        1.2528065870        0.0125542246
 H         -2.8962567165       -1.6340635669        0.3198405396
 H         -1.5857868458       -1.0964095203        1.3728823749
 H         -3.2622172811       -0.7453224387        1.7994397403
 H         -2.1604045473        1.2781884328        0.8796264172
 H         -3.4744879187        0.7427054509       -0.1716125681
 H         -1.5707056046        1.3356647410       -1.5468006868
 H         -1.8111197727       -0.4154957116       -1.6355013074
 H         -0.0494843683       -1.8921992686       -0.9911550848
 H          2.2441978969       -2.2298918178       -0.1760540106
 H          3.5153665986       -0.3354591119        0.7652916887
 H          2.4744647827        1.8993302017        0.8802696902
 H          0.1802640432        2.2339586373        0.0623078579
  21
  -25.3810094400000       5.647182356413107E-002 !mtd4
 C         -2.5300638941        0.9346878561        0.9576504776
 C         -2.5020574971       -0.3781782325        0.1854127940
 C         -1.5186567337       -0.3363019969       -0.9925507553
 C         -0.1007986151       -0.1877216322       -0.5200648998
 C          0.5771144961       -1.2784654104        0.0123403025
 C          1.8713800487       -1.1474787727        0.4819124713
 C          2.5095428222        0.0805907690        0.4260070270
 C          1.8453741357        1.1731703089       -0.1041893076
 C          0.5498269768        1.0382427867       -0.5728489903
 H         -3.2372034819        0.8757954344        1.7815549639
 H         -1.5457871403        1.1587900960        1.3632420746
 H         -2.8284716119        1.7536841608        0.3067198167
 H         -3.5014804687       -0.5942356075       -0.1978917680
 H         -2.2182372760       -1.1888202103        0.8597910848
 H         -1.7804596025        0.4973528421       -1.6465833356
 H         -1.6151412361       -1.2627336692       -1.5630372482
 H          0.0849169771       -2.2396764131        0.0559169011
 H          2.3849012748       -2.0047247255        0.8920730862
 H          3.5200821772        0.1844039364        0.7923444265
 H          2.3373976665        2.1336400909       -0.1526174622
 H          0.0378802297        1.8955407202       -0.9860455227
  21
  -25.3810094400000       5.647182356413107E-002 !md1
 C         -2.5592828416       -0.8275495793        0.9754356122
 C         -2.4823459949        0.4835739904        0.2035162021
 C         -1.5101722095        0.4016240732       -0.9816487032
 C         -0.0965926108        0.1924374199       -0.5194944814
 C          0.5018330743       -1.0594273076       -0.5799323557
 C          1.7937296194       -1.2497603740       -0.1203682740
 C          2.5064841069       -0.1875278072        0.4082898713
 C          1.9205937879        1.0659937699        0.4717405896
 C          0.6299294690        1.2523388041        0.0111625106
 H         -1.5829634923       -1.0910118863        1.3765777157
 H         -3.2597796476       -0.7407699854        1.8025424662
 H         -2.8930263536       -1.6335914421        0.3255989559
 H         -2.1600586520        1.2811855864        0.8760644652
 H         -3.4745632381        0.7414045825       -0.1724438590
 H         -1.5713598024        1.3320909966       -1.5504065823
 H         -1.8117996952       -0.4192890475       -1.6346326401
 H         -0.0483041824       -1.8935042278       -0.9916155447
 H          2.2448242458       -2.2297827269       -0.1748261648
 H          3.5143012523       -0.3343789667        0.7672700440
 H          2.4724503549        1.8999129267        0.8803287197
 H          0.1787098575        2.2332599318        0.0602141493
  21
  -25.3810094300000       5.647122598531956E-002 !mtd4
 C         -2.5586964087       -0.8321564385       -0.9669711608
 C         -2.4825815305        0.4817634813       -0.1996526506
 C         -1.5082217475        0.4054185851        0.9841722655
 C         -0.0955561902        0.1949032930        0.5198841420
 C          0.5008838312       -1.0581040225        0.5779419434
 C          1.7911755730       -1.2503376260        0.1149384858
 C          2.5045388299       -0.1888387554       -0.4145107329
 C          1.9209695402        1.0658559629       -0.4748974056
 C          0.6315731402        1.2540149316       -0.0112405699
 H         -1.5826538717       -1.0953570802       -1.3690644821
 H         -2.8898372036       -1.6365367205       -0.3136762325
 H         -3.2608260069       -0.7494660307       -1.7930875847
 H         -3.4745482021        0.7392732580        0.1771786234
 H         -2.1627256262        1.2775528269       -0.8756207796
 H         -1.8081553703       -0.4129315840        1.6412178763
 H         -1.5689003824        1.3382645433        1.5490808037
 H         -0.0499943978       -1.8915973175        0.9900043805
 H          2.2406621609       -2.2312402577        0.1670289648
 H          3.5111147773       -0.3373238007       -0.7762750230
 H          2.4733202031        1.8993505123       -0.8836942192
 H          0.1820633297        2.2358082047       -0.0582834302
  21
  -25.3810094200000       5.647062841304386E-002 !md8
 C         -2.5438107904        0.1056101886       -1.3110057788
 C         -2.5014630918       -0.4012613691        0.1250532079
 C         -1.5082760714        0.3887467841        0.9887541394
 C         -0.0951690350        0.1928749949        0.5193306971
 C          0.5821043614       -0.9853248295        0.8123136006
 C          1.8715240762       -1.1929910262        0.3572510207
 C          2.5054000364       -0.2221193015       -0.4004180024
 C          1.8418419752        0.9560126240       -0.6964057088
 C          0.5511825237        1.1601393871       -0.2393955323
 H         -1.5641651980        0.0160030030       -1.7755734209
 H         -3.2566760250       -0.4702773461       -1.8961347755
 H         -2.8427730698        1.1512309573       -1.3374804759
 H         -2.2182738033       -1.4558885632        0.1283951397
 H         -3.4961882223       -0.3190227648        0.5679096727
 H         -1.5963757151        0.0498148818        2.0233130044
 H         -1.7675513410        1.4483195026        0.9522707983
 H          0.0933491621       -1.7450139698        1.4057741795
 H          2.3847590540       -2.1133766644        0.5946214464
 H          3.5121891151       -0.3827992035       -0.7563443689
 H          2.3306127970        1.7183173709       -1.2853703942
 H          0.0395628505        2.0825836667       -0.4741856224
  21
  -25.3810094100000       5.647003084687932E-002 !mtd7
 C         -2.5626167729       -0.8290582332       -0.9682046428
 C         -2.4834695510        0.4831825320       -0.1984114693
 C         -1.5078695204        0.4028002814        0.9840293744
 C         -0.0953821924        0.1931188099        0.5186978360
 C          0.5029015688       -1.0589033547        0.5787387379
 C          1.7940224634       -1.2496744276        0.1173384711
 C          2.5062797519       -0.1877648409       -0.4127258188
 C          1.9204326782        1.0656981604       -0.4762033160
 C          0.6303928770        1.2524994966       -0.0138535473
 H         -3.2624850753       -0.7421375561       -1.7958468382
 H         -1.5866019474       -1.0951394531       -1.3684408147
 H         -2.8984469810       -1.6334387953       -0.3172816451
 H         -3.4745643128        0.7413969141        0.1802612617
 H         -2.1633686319        1.2799836393       -0.8729883136
 H         -1.8076140798       -0.4171153240        1.6391526088
 H         -1.5675424497        1.3341323837        1.5515320109
 H         -0.0469086959       -1.8926085325        0.9915865479
 H          2.2450630720       -2.2297559491        0.1714151205
 H          3.5136179447       -0.3350601296       -0.7728698223
 H          2.4717699278        1.8994249145       -0.8858522048
 H          0.1793758678        2.2335146644       -0.0627762200
  21
  -25.3810093900000       5.646883573352030E-002 !mtd4
 C         -2.5287598363        0.9502730520        0.9442410636
 C         -2.5022175466       -0.3742045058        0.1919181798
 C         -1.5191479984       -0.3509372163       -0.9868848486
 C         -0.1010705022       -0.1957255591       -0.5172724323
 C          0.5788334862       -1.2799103422        0.0257995563
 C          1.8733229373       -1.1422233832        0.4928467902
 C          2.5095735364        0.0861616691        0.4239970332
 C          1.8432841563        1.1723126538       -0.1165770391
 C          0.5476689223        1.0306066554       -0.5830406530
 H         -1.5449066456        1.1782127578        1.3487160223
 H         -2.8238059237        1.7599585032        0.2804066423
 H         -3.2378214687        0.9053918775        1.7672805419
 H         -3.5018672957       -0.5951271412       -0.1879302291
 H         -2.2189022425       -1.1748456147        0.8783322143
 H         -1.7808345792        0.4726227607       -1.6536142750
 H         -1.6162862710       -1.2860291321       -1.5428428168
 H          0.0880747418       -2.2414070078        0.0794337440
 H          2.3887577131       -1.9945999365        0.9107582516
 H          3.5204097844        0.1950166386        0.7879768941
 H          2.3337559444        2.1330113507       -0.1749698524
 H          0.0339042475        1.8829411215       -1.0042695363
  21
  -25.3810093700000       5.646764064566655E-002 !md2
 C         -2.5321317502        0.9368306457        0.9545909179
 C         -2.5020075954       -0.3783837706        0.1864233184
 C         -1.5184139059       -0.3383225152       -0.9914336039
 C         -0.1005758973       -0.1885156854       -0.5192697258
 C          0.5775418206       -1.2783459059        0.0147949918
 C          1.8719710432       -1.1466523473        0.4836547453
 C          2.5100847235        0.0813455674        0.4254739909
 C          1.8455762228        1.1730808794       -0.1059682119
 C          0.5498853787        1.0373913185       -0.5741121800
 H         -2.8305855084        1.7534151532        0.3007501254
 H         -3.2403059156        0.8795649980        1.7776870314
 H         -1.5487033673        1.1633059726        1.3609170175
 H         -3.5008819013       -0.5974002924       -0.1964716644
 H         -2.2169036835       -1.1864173831        0.8633251288
 H         -1.7804745837        0.4938171040       -1.6472881728
 H         -1.6143877035       -1.2659957828       -1.5599175766
 H          0.0853501513       -2.2395610679        0.0596599101
 H          2.3858535938       -2.0033350089        0.8945919413
 H          3.5209012551        0.1855944059        0.7908977454
 H          2.3376908884        2.1333519710       -0.1562617890
 H          0.0376469830        1.8940766911       -0.9882038258
  21
  -25.3810091800000       5.645628857127372E-002 !md8
 C         -2.5383735690        0.0986900141       -1.3120203478
 C         -2.5029866824       -0.3984423347        0.1276108093
 C         -1.5083685250        0.3921748503        0.9890268012
 C         -0.0956408697        0.1943171517        0.5192700335
 C          0.5797879967       -0.9853985848        0.8103926295
 C          1.8689549701       -1.1942353799        0.3551120742
 C          2.5043793900       -0.2231004529       -0.4009332703
 C          1.8426117060        0.9565038020       -0.6951476382
 C          0.5522486248        1.1617990412       -0.2378896880
 H         -2.8287817470        1.1464564040       -1.3463991632
 H         -1.5585457652       -0.0019675918       -1.7738842076
 H         -3.2546679856       -0.4755346703       -1.8946310876
 H         -2.2254298838       -1.4544853037        0.1389624235
 H         -3.4985430789       -0.3078874993        0.5669957067
 H         -1.5963709512        0.0555809611        2.0243945153
 H         -1.7665759205        1.4519391242        0.9503990611
 H          0.0899311002       -1.7452775838        1.4027051814
 H          2.3807103021       -2.1158919062        0.5908170270
 H          3.5109175627       -0.3847610414       -0.7571032027
 H          2.3325253590        1.7190497172       -1.2828687234
 H          0.0418919846        2.0852740088       -0.4715221434
  21
  -25.3810091400000       5.645389895172885E-002 !gc
 C         -2.5450029862        0.1062391745       -1.3107663257
 C         -2.5021121507       -0.4010259346        0.1250722390
 C         -1.5081115688        0.3882874053        0.9885091296
 C         -0.0950963359        0.1923720951        0.5188415635
 C          0.5825097730       -0.9855466245        0.8121757274
 C          1.8722076098       -1.1927233714        0.3577051042
 C          2.5060162599       -0.2217293970       -0.3998688111
 C          1.8420262195        0.9559564431       -0.6964739841
 C          0.5511369659        1.1596606102       -0.2398830853
 H         -3.2592636267       -0.4685090011       -1.8953530671
 H         -2.8425654537        1.1521689911       -1.3366984580
 H         -1.5659531969        0.0154312161       -1.7761577996
 H         -2.2197965585       -1.4558989450        0.1280329228
 H         -3.4965641534       -0.3180690896        0.5683359577
 H         -1.5958840090        0.0489693997        2.0230043204
 H         -1.7670139188        1.4480188909        0.9526229597
 H          0.0938253392       -1.7453275165        1.4055463287
 H          2.3857519409       -2.1128228156        0.5954547902
 H          3.5132173400       -0.3818979414       -0.7549133373
 H          2.3307293554        1.7183548464       -1.2853294588
 H          0.0391288576        2.0818210736       -0.4753707535
  21
  -25.3809157400000       5.114112454364880E-002 !md5
 C         -3.7481664334       -0.1118919293       -0.4110044641
 C         -2.2439971519       -0.1717877558       -0.6452622679
 C         -1.4578348485        0.1613947699        0.6289532940
 C          0.0194341659        0.0962864515        0.3703842993
 C          0.7147354702       -1.0961026913        0.5289876871
 C          2.0683344884       -1.1682401960        0.2513619407
 C          2.7469375646       -0.0459240676       -0.1925610813
 C          2.0636683699        1.1471610969       -0.3563904258
 C          0.7101056776        1.2154984304       -0.0777272602
 H         -4.0429822753       -0.8231061442        0.3573147239
 H         -4.0442557951        0.8835934736       -0.0878848459
 H         -4.2853933118       -0.3508444281       -1.3254656517
 H         -1.9651839972        0.5342511766       -1.4306633902
 H         -1.9638064328       -1.1711462448       -0.9856333203
 H         -1.7302671190       -0.5495795316        1.4114378443
 H         -1.7327927954        1.1630977219        0.9651080422
 H          0.1903056365       -1.9748403553        0.8765507273
 H          2.5956301072       -2.1018104947        0.3823212714
 H          3.8035191501       -0.1004905596       -0.4085384413
 H          2.5872520350        2.0266975547       -0.7013960260
 H          0.1819692184        2.1496430179       -0.2060081816
  21
  -25.3809157000000       5.113895989850742E-002 !gc
 C         -3.7483105475       -0.1126414591       -0.4106037456
 C         -2.2441655062       -0.1737194467       -0.6447507404
 C         -1.4578145937        0.1628801559        0.6284635724
 C          0.0194543836        0.0971935366        0.3699844234
 C          0.7139943617       -1.0957487187        0.5279224028
 C          2.0676192654       -1.1685722965        0.2505927759
 C          2.7470353149       -0.0463458554       -0.1923187944
 C          2.0645237006        1.1472859772       -0.3555012389
 C          0.7109166664        1.2162928905       -0.0771853712
 H         -4.0442359809        0.8841717290       -0.0914669838
 H         -4.2857142591       -0.3552034006       -1.3240185809
 H         -4.0431165743       -0.8206878901        0.3606452147
 H         -1.9651765486        0.5299251703       -1.4322416561
 H         -1.9643089903       -1.1741470872       -0.9822335256
 H         -1.7300985094       -0.5460678329        1.4128573253
 H         -1.7328278922        1.1654359645        0.9620145823
 H          0.1888907674       -1.9744162017        0.8746461943
 H          2.5942478612       -2.1026020255        0.3809878441
 H          3.8036770939       -0.1013202943       -0.4079198829
 H          2.5888285508        2.0267656899       -0.6995444578
 H          0.1834029646        2.1508624414       -0.2049335797
  21
  -25.3809156600000       5.113679534498874E-002 !mtd4
 C         -3.7706448141        0.0210727409        0.1108484892
 C         -2.2917776772        0.1131504828        0.4651282833
 C         -1.3987362289       -0.1905333572       -0.7444162896
 C          0.0512210984       -0.0929064677       -0.3682477368
 C          0.7319195822       -1.2000918784        0.1228912194
 C          2.0569412515       -1.1021253270        0.5091908571
 C          2.7209380155        0.1089845184        0.4116870147
 C          2.0518224149        1.2195368332       -0.0742515435
 C          0.7268426478        1.1177327616       -0.4596410032
 H         -4.0191621056        0.7305184916       -0.6752599705
 H         -4.0171896189       -0.9786153408       -0.2396406375
 H         -4.3846480909        0.2420541004        0.9803745744
 H         -2.0600320471       -0.5933431894        1.2653092031
 H         -2.0631485441        1.1155666471        0.8339597810
 H         -1.6249429669        0.5206290229       -1.5413390639
 H         -1.6218031435       -1.1954589207       -1.1082604031
 H          0.2189138935       -2.1481685839        0.1997242834
 H          2.5733831641       -1.9726201382        0.8864031034
 H          3.7553204921        0.1866576086        0.7116960725
 H          2.5642494984        2.1670963927       -0.1538720916
 H          0.2097874471        1.9874095742       -0.8395954653
  21
  -25.3809155900000       5.113300759683462E-002 !mtd11
 C         -3.7705393948        0.0159533744        0.1122842678
 C         -2.2916711389        0.1110383811        0.4657748866
 C         -1.3987838136       -0.1855432042       -0.7456575883
 C          0.0511868539       -0.0899908530       -0.3690378679
 C          0.7306946063       -1.1991835820        0.1192775744
 C          2.0556784041       -1.1035705145        0.5061971713
 C          2.7209158822        0.1071357936        0.4120679299
 C          2.0530261350        1.2196605334       -0.0710182773
 C          0.7279838435        1.1202312618       -0.4569233955
 H         -4.3844473091        0.2295156046        0.9838007963
 H         -4.0223190700        0.7292019913       -0.6693952951
 H         -4.0138812866       -0.9825523224       -0.2439040922
 H         -2.0573426082       -0.5979068663        1.2630341805
 H         -2.0656780766        1.1126730446        0.8383605789
 H         -1.6251730713        0.5299799739       -1.5385804226
 H         -1.6217667291       -1.1884405602       -1.1150310557
 H          0.2167019447       -2.1470370309        0.1933587751
 H          2.5713057320       -1.9756811448        0.8809778142
 H          3.7553816848        0.1828921615        0.7123457419
 H          2.5664168851        2.1668398830       -0.1481168434
 H          0.2119459287        1.9913860571       -0.8346743908
  21
  -25.3809155100000       5.112867908529036E-002 !mtd8
 C         -3.7703874888        0.0253061256        0.1104968791
 C         -2.2913344578        0.1149164594        0.4645756239
 C         -1.3987366822       -0.1946012087       -0.7437979710
 C          0.0512460290       -0.0953730169       -0.3681462897
 C          0.7328743162       -1.2009406443        0.1252685214
 C          2.0577497393       -1.1009514165        0.5115925184
 C          2.7206390994        0.1105615519        0.4117671952
 C          2.0506176951        1.2194901229       -0.0766083666
 C          0.7257964290        1.1156845665       -0.4619760874
 H         -4.0193096373       -0.9745836061       -0.2377170431
 H         -4.3838575244        0.2497057677        0.9795131486
 H         -4.0172478824        0.7335097537       -0.6772200068
 H         -2.0614128869       -0.5896683738        1.2668937986
 H         -2.0602432653        1.1178417821        0.8303735422
 H         -1.6250058115        0.5129984039       -1.5438796336
 H         -1.6221293718       -1.2011072651       -1.1029689517
 H          0.2206854651       -2.1493417505        0.2040109352
 H          2.5749296689       -1.9701999308        0.8906711367
 H          3.7548381500        0.1898545054        0.7120138192
 H          2.5621860702        2.1673211084       -0.1580841596
 H          0.2080292102        1.9840679611       -0.8439014287
  21
  -25.3809153000000       5.111731848570295E-002 !mtd7
 C         -3.7491381719       -0.1124700624       -0.4087535980
 C         -2.2452726699       -0.1693124208       -0.6461146672
 C         -1.4576773653        0.1602717058        0.6281212035
 C          0.0195470087        0.0954352309        0.3690681456
 C          0.7152355621       -1.0967052375        0.5278155020
 C          2.0691578608       -1.1681067104        0.2515301686
 C          2.7476654835       -0.0453307622       -0.1913324896
 C          2.0639086902        1.1474296189       -0.3557647872
 C          0.7100581580        1.2150501681       -0.0783469407
 H         -4.2879831236       -0.3472531760       -1.3233230929
 H         -4.0416968074       -0.8279709950        0.3564890476
 H         -4.0456855827        0.8809808670       -0.0798649372
 H         -1.9688294487        0.5399637837       -1.4294692680
 H         -1.9642147756       -1.1670347870       -0.9905885429
 H         -1.7298405229       -0.5525445583        1.4090541175
 H         -1.7320804515        1.1612283333        0.9669745845
 H          0.1908926471       -1.9758180324        0.8745712440
 H          2.5967945254       -2.1014657098        0.3827074824
 H          3.8045279730       -0.0992399112       -0.4061078853
 H          2.5873841383        2.0272640296       -0.7001643644
 H          0.1815410281        2.1489352572       -0.2069485822
  21
  -25.3785847400000       4.340270978633120E-003 !mtd9
 C         -3.8279252756        0.1738039446       -0.1505529277
 C         -2.3654172120        0.5829836887       -0.2875138521
 C         -1.4365588689       -0.5804746495        0.0505774761
 C          0.0366904752       -0.2653535890        0.0532386989
 C          0.9143904992       -1.2052977013        0.5882343803
 C          2.2779108251       -0.9819168214        0.6069656549
 C          2.7947290733        0.1947836461        0.0897425698
 C          1.9343932833        1.1367858056       -0.4439505324
 C          0.5677447050        0.9085832913       -0.4634771777
 H         -4.0550044629       -0.6576414548       -0.8143147421
 H         -4.0452166970       -0.1334462724        0.8700973746
 H         -4.4815764728        1.0045091484       -0.4050084339
 H         -2.1599061245        1.4197367063        0.3836314382
 H         -2.1847469154        0.9145863894       -1.3117992463
 H         -1.6102779507       -1.3905826011       -0.6652567024
 H         -1.7036502479       -0.9687019037        1.0377216550
 H          0.5176968262       -2.1249607981        0.9951497399
 H          2.9395260753       -1.7250111607        1.0275209334
 H          3.8593241258        0.3745505657        0.1039292227
 H          2.3269191296        2.0576708754       -0.8500514357
 H         -0.0800845946        1.6595174570       -0.8871941523
  21
  -25.3785827800000       4.331278316888687E-003 !mtd1
 C         -3.8281800863        0.1716680138       -0.1596151958
 C         -2.3654497495        0.5807472769       -0.2953959209
 C         -1.4372823721       -0.5760969347        0.0658507124
 C          0.0364432707       -0.2632286847        0.0596488569
 C          0.9150202397       -1.2039064903        0.5921555884
 C          2.2788561507       -0.9823777554        0.6052256462
 C          2.7953402178        0.1928939352        0.0843134469
 C          1.9342633531        1.1353151032       -0.4472665256
 C          0.5670742460        0.9092288248       -0.4606886564
 H         -4.0482747444       -0.1272535499        0.8629936211
 H         -4.4815215435        0.9998734417       -0.4228737924
 H         -4.0528970228       -0.6653657729       -0.8172035501
 H         -2.1647401668        1.4279899777        0.3640334252
 H         -2.1794726842        0.8968342397       -1.3237161272
 H         -1.6132494646       -1.4013960359       -0.6318041560
 H         -1.7031243160       -0.9425649988        1.0617095134
 H          0.5184835304       -2.1226543068        1.0012613077
 H          2.9411300086       -1.7262336240        1.0234229690
 H          3.8602558119        0.3708837238        0.0936117423
 H          2.3261937899        2.0551585867       -0.8561542503
 H         -0.0813030702        1.6608359267       -0.8823388767
  21
  -25.3785791000000       4.314444437203060E-003 !mtd2
 C         -3.8281839785       -0.2404336317       -0.0557057426
 C         -2.3634611732       -0.6601293080        0.0034862928
 C         -1.4408558924        0.5429594145       -0.1735986555
 C          0.0350588222        0.2634030043       -0.0570196698
 C          0.5679539021       -1.0160231754        0.0200193307
 C          1.9368078985       -1.2087576043        0.1179240606
 C          2.7972597552       -0.1264553999        0.1388553201
 C          2.2784553623        1.1558323167        0.0608792475
 C          0.9130650877        1.3446222620       -0.0351961319
 H         -4.4772502973       -1.1039970573        0.0668461103
 H         -4.0538064770        0.4729577363        0.7337826418
 H         -4.0532863074        0.2250075337       -1.0126889974
 H         -2.1713506538       -1.3913019680       -0.7841966621
 H         -2.1630725359       -1.1345086353        0.9665894702
 H         -1.7032519086        1.3004012956        0.5709878301
 H         -1.6264105733        0.9887798372       -1.1561767645
 H         -0.0796213016       -1.8782818379        0.0050980030
 H          2.3305623901       -2.2128639323        0.1786413012
 H          3.8634049654       -0.2789919231        0.2159854285
 H          2.9404833319        2.0092373758        0.0761835521
 H          0.5149065383        2.3479213979       -0.0951472669
  21
  -25.3762653100000       3.728898998607621E-004 !mtd10
 C         -3.1483862574        1.0957855571       -0.5152773761
 C         -2.4657078690       -0.2687488476       -0.5123712003
 C         -1.5030767227       -0.4566712685        0.6718634227
 C         -0.0473372650       -0.2552382988        0.3439011082
 C          0.9088294877       -1.0721497979        0.9381961960
 C          2.2564993144       -0.9040930718        0.6752496304
 C          2.6752163970        0.0874840232       -0.1952368947
 C          1.7345669220        0.9067913036       -0.7946416927
 C          0.3874630636        0.7382122865       -0.5252903865
 H         -3.7905976620        1.1957403560       -1.3876289646
 H         -3.7621300652        1.2124564521        0.3755451973
 H         -2.4207761327        1.9032852280       -0.5314163192
 H         -1.9227561310       -0.4131972274       -1.4484941104
 H         -3.2401385362       -1.0368967544       -0.4657655878
 H         -1.6197749295       -1.4624535313        1.0800425533
 H         -1.7778412530        0.2430707299        1.4666988187
 H          0.5926446985       -1.8517921367        1.6169839787
 H          2.9811811607       -1.5506554318        1.1481889009
 H          3.7260999229        0.2199791605       -0.4051826031
 H          2.0508998789        1.6837009948       -1.4754024736
 H         -0.3272619737        1.3896049816       -1.0031001013
  21
  -25.3762603000000       3.709182341819640E-004 !gc
 C         -3.1642960679       -1.0780559417       -0.4169635196
 C         -2.4718025997       -0.1223602497        0.5500055554
 C         -1.4872165465        0.8300468906       -0.1476977074
 C         -0.0395763236        0.4245759637       -0.0601810916
 C          0.3676421719       -0.9019602133       -0.1357979863
 C          1.7083651212       -1.2386972556       -0.0660196919
 C          2.6702023573       -0.2538203307        0.0757893770
 C          2.2790950669        1.0721333122        0.1487062620
 C          0.9378319634        1.4039916054        0.0829963588
 H         -2.4433352444       -1.6756611145       -0.9688633371
 H         -3.8245162331       -1.7517380849        0.1247843049
 H         -3.7608392726       -0.5203341610       -1.1357943924
 H         -1.9449455437       -0.6906029260        1.3189465797
 H         -3.2397362542        0.4681843993        1.0533986897
 H         -1.5824725636        1.8295453668        0.2811009501
 H         -1.7597704252        0.9100587886       -1.2042430292
 H         -0.3635388235       -1.6869878682       -0.2473686619
 H          2.0029238287       -2.2764584998       -0.1241853378
 H          3.7159940827       -0.5172117878        0.1298268878
 H          3.0203634591        1.8498761292        0.2605543647
 H          0.6434661909        2.4423797013        0.1443562359
  21
  -25.3762598600000       3.707455727269237E-004 !gc
 C         -3.1304719826       -1.1616779937        0.1570726908
 C         -2.4879079653        0.0183360338       -0.5660283278
 C         -1.4903045227        0.7887876494        0.3108554035
 C         -0.0442230140        0.4003706008        0.1443287157
 C          0.3580145109       -0.8878090979       -0.1854314525
 C          1.7004127980       -1.2018978167       -0.3141086472
 C          2.6683594258       -0.2343592811       -0.1113902156
 C          2.2820590844        1.0530389760        0.2211453511
 C          0.9402976236        1.3633762454        0.3453611683
 H         -2.3814036036       -1.8561317739        0.5282450593
 H         -3.7138077590       -0.8105748952        1.0056033763
 H         -3.7954520399       -1.7001547429       -0.5144191984
 H         -3.2822785967        0.6996506251       -0.8773633453
 H         -1.9859295630       -0.3275510863       -1.4715655395
 H         -1.7634004915        0.6517562548        1.3617081577
 H         -1.5737377222        1.8570862267        0.0998633738
 H         -0.3754431598       -1.6611125190       -0.3495978417
 H          1.9906424150       -2.2095874035       -0.5738413014
 H          3.7148844799       -0.4803681225       -0.2126112768
 H          3.0279116893        1.8180509184        0.3803794044
 H          0.6493844359        2.3724402266        0.6020929427
  21
  -25.3762592200000       3.704945722573778E-004 !gc
 C         -3.1641239859       -1.0769410867       -0.4199937068
 C         -2.4723246360       -0.1236586101        0.5498149898
 C         -1.4872164300        0.8302588246       -0.1450384025
 C         -0.0396040297        0.4244821310       -0.0586224270
 C          0.3675250274       -0.9021048559       -0.1338142821
 C          1.7083594970       -1.2387752834       -0.0654073702
 C          2.6703553284       -0.2537837417        0.0745066896
 C          2.2793028673        1.0722130658        0.1470947278
 C          0.9379797608        1.4040016685        0.0827886788
 H         -3.8244497210       -1.7521269080        0.1196721790
 H         -3.7604852583       -0.5174661124       -1.1375634272
 H         -2.4428072352       -1.6729201568       -0.9731260418
 H         -1.9461789362       -0.6937338817        1.3179137988
 H         -3.2405356494        0.4658957570        1.0539660225
 H         -1.5823442613        1.8286998169        0.2862845425
 H         -1.7594542872        0.9131511700       -1.2014580448
 H         -0.3636944318       -1.6872992714       -0.2440076566
 H          2.0028516157       -2.2765666625       -0.1233399863
 H          3.7162525366       -0.5170809004        0.1271011388
 H          3.0207457385        1.8500156917        0.2573992117
 H          0.6435947001        2.4424079857        0.1438162778
  21
  -25.3762586700000       3.702790044984878E-004 !gc
 C         -3.1621917476       -1.0775386022       -0.4215606092
 C         -2.4726115106       -0.1241444451        0.5497634662
 C         -1.4874519172        0.8311815375       -0.1429847269
 C         -0.0398469128        0.4249181908       -0.0579083067
 C          0.3668835411       -0.9017681100       -0.1334150934
 C          1.7076636452       -1.2388346195       -0.0658367967
 C          2.6700167228       -0.2541557303        0.0736670482
 C          2.2793966850        1.0719525642        0.1465869325
 C          0.9381307110        1.4041418381        0.0830243443
 H         -3.7598953862       -0.5182999340       -1.1382682569
 H         -2.4394358269       -1.6708150179       -0.9757658454
 H         -3.8208334787       -1.7551852106        0.1170814381
 H         -1.9468989947       -0.6939822294        1.3183648728
 H         -3.2422005753        0.4643346823        1.0531298305
 H         -1.5822351752        1.8285396457        0.2909815300
 H         -1.7600754464        0.9169151107       -1.1990990462
 H         -0.3645442304       -1.6868148316       -0.2430771064
 H          2.0017668227       -2.2767279099       -0.1239258495
 H          3.7158435528       -0.5178083547        0.1259083912
 H          3.0211164226        1.8494984224        0.2568141010
 H          0.6440353517        2.4426010492        0.1444262376
  21
  -25.3762533200000       3.681886509570223E-004 !gc
 C         -3.1229247137        0.5392576805       -1.0888799759
 C         -2.4736672223        0.5330943474        0.2919674435
 C         -1.5077174470       -0.6435439999        0.4965974034
 C         -0.0521078673       -0.3325660795        0.2650038030
 C          0.9109889924       -1.0027009032        1.0132644671
 C          2.2597833008       -0.7636244655        0.8233615663
 C          2.6744080106        0.1584554616       -0.1225916988
 C          1.7277188892        0.8323913976       -0.8736244645
 C          0.3784602901        0.5874456546       -0.6828665788
 H         -3.7667921883        1.4089266801       -1.2003319021
 H         -2.3766582872        0.5612822417       -1.8788433684
 H         -3.7296019142       -0.3538427895       -1.2234598630
 H         -3.2666663509        0.4729141216        1.0401194068
 H         -1.9433817066        1.4726828335        0.4582356584
 H         -1.7958289110       -1.4588233293       -0.1740499591
 H         -1.6092701812       -1.0220556128        1.5158618363
 H          0.5980645622       -1.7225765276        1.7566142966
 H          2.9889025716       -1.2952803403        1.4171799835
 H          3.7264619058        0.3504910447       -0.2719087609
 H          2.0402372109        1.5538803139       -1.6145036004
 H         -0.3386794893        1.1262604536       -1.2815345571
  21
  -25.3762527700000       3.679744248717668E-004 !gc
 C         -3.1240462278        0.5409487255       -1.0870916555
 C         -2.4724840964        0.5330575739        0.2925830469
 C         -1.5077175264       -0.6451339078        0.4941154063
 C         -0.0519841179       -0.3336632102        0.2641127997
 C          0.9110065934       -1.0029423274        1.0132061284
 C          2.2597417926       -0.7628915681        0.8240829048
 C          2.6742919899        0.1593897568       -0.1216908342
 C          1.7276691714        0.8326019719       -0.8734802955
 C          0.3785359608        0.5864876134       -0.6837174088
 H         -3.7326422027       -0.3508581022       -1.2212723818
 H         -3.7663370588        1.4119333658       -1.1969875942
 H         -2.3790350232        0.5621068166       -1.8782604666
 H         -3.2640636680        0.4731264246        1.0422108030
 H         -1.9406956152        1.4718797827        0.4586537191
 H         -1.7956566094       -1.4579162777       -0.1796284353
 H         -1.6103064741       -1.0270946323        1.5119874707
 H          0.5979840604       -1.7225643599        1.7567737985
 H          2.9889170802       -1.2936182965        1.4186510258
 H          3.7262742727        0.3522670514       -0.2703061043
 H          2.0402069723        1.5541827583       -1.6142589920
 H         -0.3387082650        1.1246386751       -1.2828504981
