  23
        -23.15998970
 C          3.4645923454        0.2555980117        0.1459710857
 C          2.2081607758       -0.4961416494       -0.2777157742
 C          0.9380847962        0.1977162728        0.2108363684
 C         -0.3201192879       -0.5509535665       -0.2240485259
 C         -1.6179770822        0.0332085181        0.3455889896
 C         -1.9133095454        1.4200319086       -0.2217672245
 C         -2.7853225395       -0.9074706165        0.0480579889
 H          3.4606743571        1.2639938317       -0.2618687819
 H          3.5184119311        0.3256697579        1.2301456614
 H          4.3553740353       -0.2559506065       -0.2103250899
 H          2.2413559149       -1.5122010955        0.1223438869
 H          2.1801405391       -0.5711005515       -1.3671798740
 H          0.9607306964        0.2620375253        1.3015706737
 H          0.9204632048        1.2155590527       -0.1821832630
 H         -0.3789766958       -0.5557615581       -1.3151939660
 H         -0.2342379432       -1.5901821622        0.1041187986
 H         -1.5098530262        0.1175849836        1.4332244461
 H         -2.8617023976        1.7894116455        0.1617251545
 H         -1.1383132972        2.1296798402        0.0539918446
 H         -1.9752688006        1.3780400538       -1.3071730698
 H         -2.6067298136       -1.8908262718        0.4769111415
 H         -2.9142897637       -1.0197352283       -1.0263552524
 H         -3.7092451097       -0.5140775599        0.4654112490
