! r2scan-3c def2/J RI DEFGRID2 scfconv6 printgap
%output
    printlevel normal
end
* xyz 0 1
C 3.3669209136 -3.7747537996 -0.6260602014
C 4.0757415793 -2.4469538516 -0.8399771206
O 3.2383251372 -1.5403817435 -1.584697378
C 2.3979842272 -0.7737233042 -0.9299539297
O 2.2900554345 -0.7332098859 0.2795925145
C 1.5770516711 0.0947017046 -1.8602867592
C 0.3287076506 0.5658125684 -1.1301541047
H -0.2051595102 1.3280836679 -1.7054541665
C 0.6598609202 1.1524285389 0.2308990857
O 0.0277910311 0.8682568255 1.2302917971
O 1.5955709095 2.0611197935 0.1561411548
C 1.991279519 2.739813775 1.3670791159
C 3.1680693667 2.0293778106 2.0144965323
S -0.8158155687 -0.8299753122 -0.8554745907
P -2.2809453771 0.1678675568 0.3091476895
S -2.5093710948 2.0895972842 0.0125773
O -3.5830899284 -0.6616196004 -0.1577798553
C -4.1180685301 -0.5326044432 -1.4771772893
O -2.2794389752 -0.2844205269 1.8241554235
C -1.8949040781 -1.6067597547 2.2390548395
H 3.0788164557 -4.2031883515 -1.581744798
H 4.0329657674 -4.4594078574 -0.1115235109
H 2.4739816172 -3.628872152 -0.0219954219
H 4.966724049 -2.5655952751 -1.4564421106
H 4.3311727955 -1.9837256688 0.1170970978
H 1.3213911176 -0.4670705619 -2.7575799102
H 2.1802231786 0.9605039461 -2.1416383716
H 2.2567659346 3.7458484295 1.0408558978
H 1.1308013144 2.773372285 2.041289946
H 4.0264005043 2.0403827014 1.3488423613
H 3.4241467615 2.5298456651 2.9422709247
H 2.9021135677 0.995722976 2.2261522135
H -4.2199972769 0.5228267442 -1.7361110314
H -5.0930459956 -1.0119384187 -1.4462807059
H -3.4644131055 -1.0311905631 -2.1928993906
H -2.184972581 -1.6710904517 3.2845237424
H -0.8147206922 -1.7157660009 2.135416055
H -2.4137594811 -2.357226533 1.644055167
*
