  18
  -18.9868205100000       0.499830036716969      !md2
 C         -0.7257267485       -1.2525928668        0.2414285525
 C         -1.4476560197        0.0022463636       -0.2416782298
 C         -0.7218368570        1.2546639718        0.2418582887
 C          0.7255566315        1.2525855575       -0.2418594795
 C          1.4476392713       -0.0020539236        0.2416334228
 C          0.7220343808       -1.2548091271       -0.2414186694
 H         -1.2415293434       -2.1429311093       -0.1244531937
 H         -0.7421684849       -1.2806981279        1.3335778463
 H         -1.4800128698        0.0025767014       -1.3337153390
 H         -2.4766267016        0.0036165774        0.1240639132
 H         -1.2351483921        2.1466797400       -0.1231219696
 H         -0.7375786384        1.2820787772        1.3339613939
 H          0.7413204179        1.2801944235       -1.3338973213
 H          1.2415198298        2.1430599676        0.1232808854
 H          2.4765600930       -0.0035958414       -0.1239922017
 H          1.4798143298       -0.0016453915        1.3335692745
 H          0.7386926024       -1.2832723309       -1.3335205663
 H          1.2350301425       -2.1465397665        0.1246776518
  18
  -18.9868205000000       0.499824747568851      !input
 C         -0.7257448093       -1.2527346010       -0.2415297778
 C         -1.4476883475        0.0021382633        0.2415186336
 C         -0.7220001939        1.2548556406       -0.2415499260
 C          0.7257188477        1.2527068459        0.2415391770
 C          1.4477223375       -0.0021396480       -0.2415150569
 C          0.7219911143       -1.2548229418        0.2415390069
 H         -0.7419378170       -1.2806963590       -1.3335690530
 H         -1.2415526976       -2.1431122756        0.1240544545
 H         -2.4766766999        0.0036509622       -0.1240694640
 H         -1.4800342337        0.0022011539        1.3335443470
 H         -0.7381015459        1.2828340717       -1.3335902562
 H         -1.2351650239        2.1467633114        0.1239994500
 H          1.2415387665        2.1430798202       -0.1240306728
 H          0.7419061260        1.2806527740        1.3335742488
 H          1.4800464528       -0.0021930307       -1.3335455731
 H          2.4767274924       -0.0036534919        0.1240556372
 H          1.2351587558       -2.1467414384       -0.1240172577
 H          0.7381029516       -1.2828279098        1.3335696267
  18
  -18.9782497700000       5.754173653890531E-005 !md3
 C         -0.7597695632       -1.3116602050        0.0243737960
 C         -1.3722782991        0.0342105722       -0.3844032242
 C         -0.7120920743        1.1732754468        0.3847534225
 C          0.7597662693        1.3116464955       -0.0251143146
 C          1.3658182185       -0.0453764868       -0.4056583371
 C          0.7185544404       -1.1620942385        0.4060687879
 H         -0.8586773147       -2.0162281724       -0.8034790316
 H         -1.3083614171       -1.7255774204        0.8724588488
 H         -1.2293439740        0.2027449839       -1.4533238874
 H         -2.4469726628        0.0239137885       -0.1952968537
 H         -1.2379139055        2.1107511449        0.1963725740
 H         -0.7863867733        0.9650717857        1.4536551102
 H          0.8449802461        1.9925114535       -0.8740541707
 H          1.3220505017        1.7492267281        0.8018603461
 H          1.2054745035       -0.2440113667       -1.4669127005
 H          2.4434546646       -0.0299953161       -0.2344990032
 H          1.2414488180       -2.1046343719        0.2356722595
 H          0.8102593306       -0.9237921153        1.4673066168
  18
  -18.9782497000000       5.753747437081385E-005 !mtd11
 C         -0.7155581471       -1.1710799770        0.3848967403
 C         -1.3723516146       -0.0302275847       -0.3844217725
 C         -0.7559216670        1.3138786614        0.0242783714
 C          0.7219541702        1.1599706496        0.4061288734
 C          1.3661339628        0.0413590648       -0.4053427569
 C          0.7556896396       -1.3139053625       -0.0254766476
 H         -1.2442771898       -2.1070116250        0.1969603672
 H         -0.7889077763       -0.9622852936        1.4537567294
 H         -1.2295049563       -0.1993555106       -1.4532738559
 H         -2.4470333535       -0.0168694774       -0.1955496991
 H         -0.8525854746        2.0186580167       -0.8036495212
 H         -1.3034041818        1.7295726058        0.8722430639
 H          1.2477022812        2.1009536838        0.2355722834
 H          0.8129500960        0.9214443487        1.4674136011
 H          1.2069440718        0.2407726344       -1.4665924997
 H          2.4436448403        0.0226215819       -0.2337108301
 H          0.8383845025       -1.9944372521       -0.8749353190
 H          1.3167265530       -1.7540095097        0.8010172062
  18
  -18.9782497000000       5.753747437081385E-005 !md4
 C         -0.7596462320       -1.3117451951        0.0251318389
 C         -1.3657561918        0.0453609723        0.4056030964
 C         -0.7186773993        1.1623646246       -0.4058440812
 C          0.7599124728        1.3115862003       -0.0247841032
 C          1.3719849114       -0.0342649212        0.3847035974
 C          0.7122154574       -1.1733331543       -0.3847904567
 H         -1.3217863157       -1.7494142826       -0.8018954849
 H         -0.8448761268       -1.9926219700        0.8740941762
 H         -2.4433567856        0.0300609052        0.2341607758
 H         -1.2056888622        0.2440725582        1.4669022136
 H         -0.8110065075        0.9245031522       -1.4671134224
 H         -1.2414274712        2.1048820813       -0.2348179123
 H          1.3082424045        1.7244776685       -0.8735395074
 H          0.8596386219        2.0168592637        0.8023829798
 H          2.4467983604       -0.0241274085        0.1963012189
 H          1.2283496063       -0.2026748807        1.4535640299
 H          0.7866454814       -0.9648103517       -1.4536183790
 H          1.2380741173       -2.1108316723       -0.1966577342
  18
  -18.9782496600000       5.753503898802836E-005 !mtd2
 C         -0.7224415285       -1.1603194181       -0.4053208337
 C         -1.3653424171       -0.0412037536        0.4065279117
 C         -0.7562445088        1.3137358219        0.0236854378
 C          0.7159018662        1.1715323837       -0.3840581314
 C          1.3720447613        0.0299552305        0.3848449889
 C          0.7560471972       -1.3137290921       -0.0256103198
 H         -0.8148301021       -0.9222301307       -1.4665334593
 H         -1.2478501318       -2.1012644163       -0.2338099862
 H         -2.4432310585       -0.0229824309        0.2371773388
 H         -1.2037793003       -0.2392175573        1.4676805309
 H         -1.3166800882        1.7502309281       -0.8051236525
 H         -0.8414004721        1.9968867127        0.8707764217
 H          0.7910864923        0.9641505390       -1.4530785659
 H          1.2441176213        2.1073374998       -0.1940459861
 H          2.4468594264        0.0166330614        0.1966143047
 H          1.2287835175        0.1979627840        1.4537981916
 H          1.3027927318       -1.7271618788       -0.8750969352
 H          0.8545440399       -2.0200015777        0.8008188967
  18
  -18.9782496500000       5.753443015838470E-005 !mtd2
 C         -0.6471123581       -1.2034271637       -0.4059522666
 C         -1.5157983448        0.0022540452       -0.0246768284
 C         -0.6564730879        1.2054214144        0.3846117711
 C          0.6600021415        1.2033488050       -0.3846609454
 C          1.5157982427       -0.0022174433        0.0248393864
 C          0.6435684304       -1.2053661596        0.4058376207
 H         -0.3948421489       -1.1642018852       -1.4671990770
 H         -1.2019043936       -2.1274703217       -0.2351606068
 H         -2.1478901463        0.2705907767       -0.8732147831
 H         -2.1760055007       -0.2641884018        0.8027985900
 H         -1.2026304785        2.1311233957        0.1958348857
 H         -0.4390784306        1.1654523476        1.4535187706
 H          0.4424489146        1.1639944413       -1.4535675163
 H          1.2090041391        2.1273616000       -0.1959971672
 H          2.1753592923       -0.2705666504       -0.8025022435
 H          2.1485860589        0.2641946062        0.8734619864
 H          1.1957104522       -2.1309643387        0.2349530513
 H          0.3914207102       -1.1654864240        1.4670891520
  18
  -18.9782495700000       5.752955975359452E-005 !mtd6
 C         -0.6599900080       -1.2031602039        0.3848528246
 C         -1.5157900982        0.0020766466       -0.0255433769
 C         -0.6436484634        1.2057410426       -0.4054404411
 C          0.6470419994        1.2032044540        0.4063626844
 C          1.5157598543       -0.0020852760        0.0240289123
 C          0.6566069925       -1.2057711240       -0.3841882038
 H         -1.2089191988       -2.1273677642        0.1967932324
 H         -0.4427330389       -1.1629159885        1.4537330308
 H         -2.1472992934       -0.2647559309       -0.8749953533
 H         -2.1766079085        0.2699162380        0.8010009627
 H         -0.3912327934        1.1667521542       -1.4666636756
 H         -1.1958259037        2.1311892027       -0.2339167578
 H          1.2017779965        2.1273859865        0.2362371235
 H          0.3949770449        1.1630046913        1.4675948884
 H          2.1744202243        0.2647787165       -0.8044701824
 H          2.1493912462       -0.2699951833        0.8715085770
 H          0.4393025678       -1.1668955104       -1.4532076724
 H          1.2029840977       -2.1311626231       -0.1944769480
