! pbe def2-sv(p) def2/J RI DEFGRID1 loosescf d4 GCP(DFT/SV(P)) printgap
%output
    printlevel normal
end
* xyz 0 1
C 2.5025731951 0.1305308309 -0.74298326
N 1.4866098166 -0.1025538418 0.2602246343
C 0.7352682078 1.0950257765 0.6300750651
C -0.6039554154 1.1944848413 -0.0960201805
N -1.4777153737 0.0995801179 0.308178244
C -0.715123149 -1.1015190775 0.6417689524
C 0.6002641578 -1.1932287576 -0.127612669
C -2.5246584083 -0.1234124283 -0.6650409714
H 3.0507850105 -0.7971725499 -0.9018975252
H 3.196324635 0.8866362681 -0.381019093
H 2.0906503853 0.4589060441 -1.7116694725
H 0.5492008576 1.0652044403 1.707974236
H 1.3394712058 1.9769097327 0.4144569429
H -1.0999602347 2.1378522717 0.1512748759
H -0.4222065684 1.1869708247 -1.1865151365
H -0.4947726611 -1.0825695928 1.7134322906
H -1.3260068804 -1.9812882199 0.4366068132
H 1.1037070239 -2.1390953773 0.0937115317
H 0.3838643733 -1.1741504304 -1.2116359125
H -2.1432936726 -0.4416408891 -1.6494955001
H -3.0775250557 0.8057372189 -0.7971016582
H -3.2067350002 -0.883391971 -0.2893277624
*
