! r2scan-3c def2/J RI DEFGRID2 scfconv6 printgap
%output
    printlevel normal
end
%cpcm
    smd true
    smdsolvent "water"
end
* xyz 0 1
C 2.7168610474 -0.0531262773 3.3706414278
C 1.4093324412 -0.3777846735 2.6793256133
O 1.326462712 0.24661546 1.3836593947
P 2.1971044517 -0.2338652564 0.1517154273
S 2.7439216583 -2.1190872817 0.1410728659
O 3.3892129277 0.8160459651 0.1868129315
C 4.6103948848 0.623879766 -0.5489616919
C 4.40022755 0.7360946931 -2.0452119099
S 0.9713457563 0.4243348049 -1.4380899586
C -0.0014460574 -1.0994783239 -1.5930816459
S -0.9722155107 -1.4938606486 -0.1117584563
P -2.1967100167 0.2269986883 -0.1617831181
S -2.74549667 0.8850236503 -1.9277624638
O -1.3241567023 1.2086034872 0.7223759914
C -1.4089251081 2.6414994243 0.5992575027
C -2.7158280152 3.1709302275 1.151138463
O -3.3875662376 -0.1115314664 0.8342241178
C -4.609774591 -0.730626876 0.3954430316
C -4.4004639682 -2.1683880545 -0.0342042659
H 2.7060739467 -0.4650404001 4.3748564433
H 3.5449841849 -0.4929996049 2.815864209
H 2.8593922216 1.0232002722 3.4197326387
H 0.5490011347 0.0220857368 3.2181379838
H 1.2936929478 -1.4594002847 2.5517231807
H 5.2679745382 1.4091872881 -0.173819163
H 5.0171118293 -0.3593463111 -0.2913547702
H 5.3624176797 0.7066261535 -2.546381348
H 3.7915512798 -0.0945531713 -2.4001227495
H 3.8940580404 1.6672645772 -2.2874951845
H 0.6654934391 -1.9455739417 -1.7548662211
H -0.66963784 -0.9501304709 -2.4404710349
H -0.5477735816 3.0040362681 1.1625984196
H -1.295867379 2.9066636593 -0.4573602077
H -3.5448471944 2.8084937169 0.5441436148
H -2.8561642807 2.8334665002 2.1746706506
H -2.705899029 4.256012915 1.123777586
H -5.2650384481 -0.6605027139 1.2646768439
H -5.0188346411 -0.1392659134 -0.4300732138
H -3.8917934389 -2.7268650072 0.747710052
H -5.3630806041 -2.626405561 -0.2378207852
H -3.7944232249 -2.2032610359 -0.9386149929
*
