! r2scan-3c def2/J RI DEFGRID2 scfconv6 printgap
%output
    printlevel normal
end
%cpcm
    smd true
    smdsolvent "water"
end
* xyz 0 1
C -0.6761041152 -0.5139855519 0.3721443867
C 0.6690706103 -0.539168446 -0.3491781429
O 1.4969854594 0.4693597376 0.1908056991
O -1.4906497408 0.4810333259 -0.2115918384
H -0.4917398455 -0.2986520091 1.4306271294
H -1.1534410402 -1.4979296899 0.2754862344
H 0.4877034705 -0.3682781581 -1.4162438768
H 1.1328156248 -1.524348304 -0.208767005
H 2.2955599781 0.5533473715 -0.347152766
H -2.287655281 0.5994330027 0.3223277697
*
