  8
         -7.33617225
 C         -0.7610376503       -0.0000205437        0.0000076138
 C          0.7610519352        0.0000071934        0.0000194321
 H         -1.1430739951        0.3935702126        0.9391459530
 H         -1.1428864597        0.6169153053       -0.8102399250
 H         -1.1437483767       -1.0099118431       -0.1289774065
 H          1.1432459177        1.0101479597        0.1288916522
 H          1.1430604904       -0.3935318869       -0.9392034807
 H          1.1432322023       -0.6170306637        0.8100609243
