! pbe def2-sv(p) def2/J RI DEFGRID1 loosescf d4 GCP(DFT/SV(P)) printgap
%output
    printlevel normal
end
* xyz 0 1
C -1.8350518116 -1.4537302084 -5.08837e-05
C -0.528277109 -0.7116925189 2.46584e-05
C 0.6798028514 -1.393607712 0.0001587753
C 1.890470395 -0.723235556 -5.43488e-05
C 1.9069362084 0.6605115292 -3.47861e-05
C 0.7170752552 1.3625429484 -3.3596e-06
C -0.4979258108 0.6867722384 -5.8238e-05
O -1.6327582512 1.4441212127 2.83765e-05
H -1.6532078227 -2.5245514612 -0.0003012084
H -2.4210849015 -1.211430211 0.8865700071
H -2.4211464107 -1.2109756089 -0.8865046765
H 0.6691214604 -2.4739609625 -0.0001236726
H 2.8155353206 -1.2789104319 -9.32063e-05
H 2.8438901132 1.1960794453 0.0001135391
H 0.7011834403 2.4414143958 3.29201e-05
H -2.4175829739 0.8766452158 7.25318e-05
*
