! pbe def2-sv(p) def2/J RI DEFGRID1 loosescf d4 GCP(DFT/SV(P)) printgap
%output
    printlevel normal
end
* xyz 0 1
C 4.1251752498 2.6871051286 -0.9731656142
C 3.9350194512 1.2724489431 -1.4857974663
O 3.7675258408 0.3335498815 -0.4085424926
P 2.3726518271 0.0344760811 0.2912527771
S 1.6678636341 1.4645396392 1.4361818765
O 2.7319518584 -1.3098268751 1.0346993957
C 2.6868263305 -1.4874289735 2.4686358852
C 1.6615815427 -2.5402876677 2.8385094623
S 1.1925302858 -0.6109297305 -1.3682169397
C 0.1208131789 -1.785358456 -0.4943113007
S -0.9467962754 -1.0164375345 0.7421559432
P -2.2343625822 -0.0125054655 -0.6324860785
S -2.4986045418 -0.9149856423 -2.3471119001
O -1.6321362052 1.4216505562 -0.8855127199
C -1.4637802576 2.4244508275 0.1444160446
C -2.6110629404 3.4117737531 0.1163484551
O -3.5063629814 0.3118549352 0.2611842181
C -4.2108795273 -0.6412677958 1.0802834221
C -4.6486892591 -1.8688915486 0.3100247038
H 4.3081154409 3.3501463932 -1.8126438316
H 3.2374463213 3.0227356543 -0.4417121741
H 4.9709770015 2.7254789303 -0.2921726434
H 4.8248982417 0.9190930865 -2.010507418
H 3.0709220541 1.2062000539 -2.1553798937
H 3.6942122263 -1.7959641093 2.7529596553
H 2.4511621789 -0.5265264163 2.9382788156
H 0.6592979505 -2.204200886 2.5775963133
H 1.8743699907 -3.4721645808 2.3218121116
H 1.7065279044 -2.7102652259 3.9092884632
H 0.7293851185 -2.5275801926 0.0154626668
H -0.5007955322 -2.2378497251 -1.269101613
H -1.3791209177 1.93447266 1.1183939072
H -0.5135456808 2.9085886308 -0.0894065418
H -2.4293031204 4.1843052202 0.8567776785
H -2.6848902649 3.8654151574 -0.8682369527
H -3.5472628821 2.9076937072 0.3413614993
H -3.5612351759 -0.9183962072 1.9152352935
H -5.0681269115 -0.076196833 1.4503678687
H -5.2350586566 -1.5821673124 -0.5597009634
H -3.7799216259 -2.4287788519 -0.0330422443
H -5.2473875552 -2.5037071181 0.9551455554
*
