! pbe def2-sv(p) def2/J RI DEFGRID1 loosescf d4 GCP(DFT/SV(P)) printgap
%output
    printlevel normal
end
* xyz 0 1
C 2.8533944792 -0.7108446225 -2.6574253051
C 1.6630561855 0.0297832537 -2.0853962538
O 1.2735808945 -0.5005710767 -0.8055421632
P 2.1858174709 -0.2409161202 0.4979812332
S 3.2302460239 1.4088460893 0.5025000362
O 3.1404403155 -1.4997889224 0.6202084669
C 2.6822789074 -2.8732955306 0.5443816931
C 2.5747191597 -3.4817864612 1.9281002871
S 0.7609532621 -0.5475018479 2.012922485
C -0.0794963907 1.0703760874 2.0038281991
S -0.295742063 1.8198213595 0.3691098946
P -1.8238396444 0.5760854419 -0.4277130199
S -1.9808916895 0.6522165648 -2.37754521
O -3.1116726952 0.9844602222 0.4235683215
C -3.7689044373 2.2509418217 0.2391893261
C -4.9095577093 2.1313120213 -0.7531268537
O -1.5129783111 -0.8309942923 0.2118961147
C -1.8584715949 -2.0654534048 -0.4470071556
C -3.3543778811 -2.2938242428 -0.4250727617
H 2.6333307164 -1.7715646304 -2.7471141328
H 3.0855219785 -0.307198277 -3.6378677631
H 3.7165032605 -0.5770950897 -2.0053050012
H 0.7735162977 -0.0798044261 -2.7098122573
H 1.8889491263 1.0949888466 -1.9645821046
H 1.7244032191 -2.9006986568 0.018564736
H 3.4444966582 -3.3803203327 -0.0501929394
H 3.5241505129 -3.3874575126 2.4475922817
H 1.8062011347 -2.9776947573 2.5103026402
H 2.3204042016 -4.5328333388 1.8335091488
H 0.5229510856 1.7819318069 2.5656333034
H -1.0478255278 0.9096938498 2.4727298252
H -4.1352867497 2.5220360199 1.2312469015
H -3.0349296081 2.9928814195 -0.0936140258
H -5.4195601457 3.0861609478 -0.8289786486
H -4.5292244089 1.8548417042 -1.7341002961
H -5.6133069458 1.3727650147 -0.4222701768
H -1.4849540998 -2.0316252703 -1.4752956835
H -1.3206820256 -2.8244081066 0.1232370661
H -3.7239223378 -2.2602823144 0.5961263658
H -3.8500916636 -1.516773692 -1.005881128
H -3.5798337221 -3.261238768 -0.8623730395
*
