! pbe def2-sv(p) def2/J RI DEFGRID1 loosescf d4 GCP(DFT/SV(P)) printgap
%output
    printlevel normal
end
* xyz 0 1
C 3.0203091618 2.4913804195 -0.9820100554
C 2.2378642395 1.2500846864 -1.3549643786
O 1.3326788388 0.8824621329 -0.2797534133
P 1.6729413573 -0.2453395501 0.7764674689
S 0.4842380175 -0.143520216 2.3255422215
O 3.2094851295 0.0220202787 1.0779326939
C 4.1309603026 -0.9556241296 1.5973001867
C 3.628243883 -1.6348676946 2.8533033898
S 1.7663284622 -2.0618781133 -0.3523169465
C 0.2236404041 -1.9384576472 -1.2955326185
S -1.2639143019 -1.6959633334 -0.280667292
P -1.8270771214 0.238344194 -0.9147117972
S -1.0760362916 0.888907069 -2.5959599246
O -1.5314044286 1.1486305164 0.3584772841
C -1.2741507104 2.5571910872 0.2600444173
C -2.5501122479 3.3340691798 0.0094023816
O -3.4070254356 0.1316216538 -1.0510839866
C -4.2867417235 -0.6589064582 -0.2216880265
C -4.1872524691 -0.3037475507 1.2471469082
H 3.6578869606 2.7686070604 -1.8155711698
H 2.340861106 3.310744674 -0.7632416971
H 3.6328889616 2.300006041 -0.104794862
H 2.9045136695 0.4095528974 -1.5632426119
H 1.589627011 1.4291373061 -2.2165654479
H 4.3220328719 -1.6925629306 0.8120153134
H 5.0353783267 -0.3765566085 1.7920455274
H 4.3965194372 -2.2995497932 3.2348471861
H 3.3789166185 -0.8966756027 3.6119023068
H 2.7334329043 -2.2158754523 2.6330242733
H 0.1232902795 -2.897915751 -1.797906114
H 0.2853493707 -1.1227203898 -2.0215222045
H -0.817148462 2.8096837561 1.2186468279
H -0.5531083843 2.7249331206 -0.5463816011
H -2.3217907833 4.3939348881 -0.0426929118
H -2.9921728278 3.0169449047 -0.9352697724
H -3.2628947299 3.158166969 0.8106317601
H -5.2761836237 -0.4359746651 -0.6244266121
H -4.050635365 -1.7142171001 -0.3819736465
H -3.1815410277 -0.4981154407 1.6193461759
H -4.4185249389 0.7470642676 1.4017170793
H -4.8911829581 -0.910963339 1.8076446688
*
