! pbe def2-sv(p) def2/J RI DEFGRID1 loosescf d4 GCP(DFT/SV(P)) printgap
%output
    printlevel normal
end
* xyz 0 1
C 2.3387063157 0.1689489847 -3.1789457622
C 3.4091648613 0.4730344376 -2.150267283
O 3.2808226774 -0.3563165915 -0.9847210132
P 2.0770768516 -0.2126025493 0.0462099455
S 1.6517850411 1.6637924548 0.4522884828
O 2.6024043957 -1.0673449307 1.267490871
C 3.063031286 -0.5095735918 2.5179525153
C 2.1698370239 -0.9858371802 3.6465215729
S 0.672883231 -1.5933748049 -0.7241634339
C -0.2890220027 -1.9086649958 0.7847275049
S -0.9717612947 -0.4070934587 1.5459738274
P -2.0564396227 0.3511156038 -0.1032673962
S -1.2182996365 1.2205428384 -1.6551622498
O -3.1336841224 1.280336132 0.6098590509
C -2.9171196779 2.6794550938 0.8499626243
C -1.8549177706 2.9122755487 1.9055866632
O -2.9158933273 -0.9346780478 -0.4300028177
C -3.3577634079 -1.3074847716 -1.7538686215
C -2.7270770683 -2.6283837767 -2.1485215959
H 2.5360789531 0.7327591701 -4.0849231883
H 2.3255977588 -0.8938048923 -3.4081096259
H 1.3582293053 0.4583556977 -2.7979530586
H 3.3573792071 1.5218554678 -1.8390493656
H 4.4075045949 0.2454361428 -2.5262847166
H 4.0887244342 -0.8612399128 2.6399918968
H 3.0542690883 0.5827974971 2.4454185156
H 2.5484595456 -0.5944540733 4.5850274046
H 1.1525917899 -0.6274416103 3.4971185987
H 2.1639047864 -2.0713677492 3.6888240026
H 0.3499066287 -2.367929147 1.53571359
H -1.1004246816 -2.5729457036 0.4958318076
H -2.6322153312 3.1553777737 -0.0944782483
H -3.8932580886 3.04547669 1.1711327373
H -2.0890350352 2.3518268147 2.8073638379
H -0.8801263057 2.5913018824 1.5355452689
H -1.8026451348 3.9705711195 2.1398582786
H -4.4446096555 -1.3821798143 -1.6926105423
H -3.0817036663 -0.5158178164 -2.4578176002
H -1.643758599 -2.5285298005 -2.1938777071
H -2.9851473543 -3.3989086236 -1.4274608807
H -3.0967722083 -2.9174436222 -3.1268514228
*
