! pbe def2-sv(p) def2/J RI DEFGRID1 loosescf d4 GCP(DFT/SV(P)) printgap
%output
    printlevel normal
end
* xyz 0 1
C 0.6262497371 1.6913172448 -0.0380944937
C 1.4108757682 0.3838194392 -0.235079655
H 1.6552232303 0.2485703811 -1.2941946335
C 0.5335917505 -0.7951923199 0.211534966
H 0.3229429214 -0.7151856542 1.2903031473
C -0.8086744956 -0.7321585089 -0.5318172807
H -0.6100544559 -0.812276781 -1.6117660813
C -1.4728098818 0.6360983957 -0.2790306891
H -2.3647389572 0.7382636488 -0.915389821
O -0.6243375004 1.6746269121 -0.7097827247
O -1.794457083 0.7371406986 1.0688431644
O -1.5868260171 -1.8092829569 -0.081502145
O 1.2077363076 -1.9970155971 -0.0635717885
O 2.6457543846 0.4305767981 0.4266179522
H 1.1752490631 2.5322508084 -0.4600751887
H 0.4682941516 1.8541988148 1.0356416231
H -2.3473620769 1.5178728899 1.2266275317
H -2.4387811098 -1.825894795 -0.5393021006
H 0.5992773674 -2.7309056544 0.1121735023
H 2.5081125357 0.3867309208 1.3843342558
*
