! pbe def2-sv(p) def2/J RI DEFGRID1 loosescf d4 GCP(DFT/SV(P)) printgap
%output
    printlevel normal
end
* xyz 0 1
C 2.5944006525 2.7003375979 -0.7656762592
C 2.2756143939 1.4193286912 -1.5104841149
O 1.4995022573 0.5099238485 -0.7011079526
P 2.0899950284 -0.4454222087 0.4123344779
S 2.860035814 0.3649933589 2.0280817449
O 3.1112663069 -1.3274617523 -0.4250386185
C 4.1182299863 -2.1381228428 0.20765613
C 3.5147544487 -3.3280341808 0.9247148385
S 0.3972103904 -1.6660120266 0.7291649082
C -0.3903476299 -0.5915920216 1.9569816835
S -0.9110638006 1.0122746908 1.2845957484
P -2.0673836614 0.3636510694 -0.3765985314
S -1.2613232365 -0.077074206 -2.1137849335
O -3.1658835605 1.5117874015 -0.4850444861
C -2.9786907346 2.6612575736 -1.3248807154
C -1.831801562 3.5252521008 -0.841293444
O -2.8582348629 -0.8050140647 0.3399103035
C -3.5089486621 -1.8554432042 -0.4056476111
C -4.7337544846 -1.3448896434 -1.1345739819
H 3.0879271772 3.3918789954 -1.441029678
H 1.680722011 3.154582058 -0.3893832341
H 3.2498879225 2.4973245461 0.0787960026
H 3.1848962103 0.9097165266 -1.8377072156
H 1.629663899 1.6032016967 -2.3723369602
H 4.7631316742 -2.445907852 -0.6164381297
H 4.6776148663 -1.5091662435 0.9078457356
H 2.8738083415 -3.8901087138 0.2499644714
H 4.3102714927 -3.9706051621 1.2879395445
H 2.9194660589 -2.9882579819 1.7714264931
H 0.3232236464 -0.3617953521 2.7496776604
H -1.2535657215 -1.1279070755 2.341766792
H -2.7931292175 2.3159263992 -2.3476149515
H -3.9332318902 3.1862367496 -1.2749293453
H -0.9003032623 2.961558135 -0.9106122908
H -1.7551197351 4.4133654607 -1.4601979113
H -1.9845678094 3.8142005127 0.1957371989
H -2.7860872359 -2.2807419743 -1.1094667099
H -3.7658191096 -2.5952869358 0.353525768
H -5.2517908604 -2.1793825172 -1.5965791926
H -5.4010152223 -0.8414101956 -0.4400787042
H -4.4349922085 -0.6400192326 -1.9093328572
*
