! pbe def2-sv(p) def2/J RI DEFGRID1 loosescf d4 GCP(DFT/SV(P)) printgap
%output
    printlevel normal
end
* xyz 0 1
C 0.9522738255 -1.6827901287 2.9018787193
C 2.2952092432 -2.0382292143 2.2966146981
O 2.8671241759 -0.9277441377 1.5856712948
P 2.2909924838 -0.4403375067 0.1867787966
S 1.7592903743 -1.8997309436 -1.0186191608
O 3.4411332966 0.5011537768 -0.3652876812
C 4.5121199521 0.0013293262 -1.1918837848
C 5.4593922564 -0.8837486243 -0.409741941
S 0.9126933701 1.0633433234 0.7316530155
C 0.4845843335 1.6543045858 -0.9224479893
S -0.7393305644 0.6305166065 -1.8139969292
P -2.3372439525 0.5967583034 -0.4368230677
S -4.1200008238 0.2988186635 -1.196147577
O -2.0589630808 1.9756506751 0.2901082863
C -2.8659284994 2.422946507 1.4055960197
C -3.9795981501 3.3345281686 0.9303983494
O -1.9652610694 -0.4564783464 0.7106161298
C -2.4974444251 -1.7903115201 0.7084636296
C -1.8994887326 -2.6349709648 -0.3977012125
H 1.0462997168 -0.8091946619 3.541772587
H 0.2365696647 -1.4570134084 2.112018881
H 0.5856277906 -2.5218351124 3.4846879017
H 2.1963832872 -2.8805497369 1.6032479373
H 3.0339559776 -2.2732034041 3.0639153785
H 4.0759827787 -0.5481916445 -2.0327067603
H 5.006965209 0.903799508 -1.5533901017
H 6.3079626993 -1.1438223137 -1.0347962766
H 5.8083506272 -0.3655897644 0.4795033367
H 4.9489801415 -1.7972006229 -0.1079504698
H 1.3692013613 1.6581008984 -1.5554421181
H 0.0842531102 2.6565970613 -0.8016779898
H -3.2641796169 1.5529162551 1.9330767303
H -2.1619050194 2.9504931959 2.0517330571
H -3.5666517096 4.1764586889 0.3819088005
H -4.658246853 2.7911635048 0.2762130337
H -4.5325630932 3.7012622882 1.7892585537
H -2.2509756515 -2.1795929594 1.6972994541
H -3.5843987236 -1.7289456545 0.5901863575
H -0.8140448795 -2.6548279413 -0.3324141315
H -2.279262154 -3.6487579248 -0.3272524795
H -2.1757888859 -2.2203528549 -1.3678015492
*
