! pbe def2-sv(p) def2/J RI DEFGRID1 loosescf d4 GCP(DFT/SV(P)) printgap
%output
    printlevel normal
end
* xyz 0 1
C 1.7132588411 2.2266965989 1.7970678066
C 3.1011459871 1.6202745728 1.8141611079
O 3.404135839 0.9539312036 0.5780191974
P 2.811455582 -0.4758239025 0.2066104442
S 2.6738753409 -1.7123770961 1.7309431879
O 3.7334329574 -0.8863770778 -1.0121060976
C 5.1666729821 -0.7092509349 -1.0475348503
C 5.8703625854 -1.4927220649 0.0414157824
S 1.0324009955 -0.192998444 -0.9130355415
C -0.1403655578 -1.1325450171 0.107359024
S -1.2401974369 -0.0878265778 1.1059139611
P -2.8361673095 0.1181811876 -0.2692875207
S -2.5974736392 -0.5976362581 -2.0845139119
O -3.2743135303 1.6447570867 -0.2001084038
C -2.7221426451 2.6489486513 -1.0674262097
C -1.2732970138 2.9479956888 -0.7398142859
O -3.9605562327 -0.5808325753 0.5997704596
C -5.2033929408 -1.0430868985 0.032009196
C -6.0826254494 0.1016771613 -0.4264927911
H 1.5896478667 2.8532527411 0.917501596
H 0.9585910721 1.4408230476 1.7813884447
H 1.572043191 2.826089518 2.6905225974
H 3.200163296 0.8998815114 2.6330185094
H 3.8734000461 2.3864977405 1.8976305314
H 5.4407287019 -1.0693545114 -2.0405412656
H 5.3837946129 0.3577575859 -0.9653503288
H 5.6039752964 -2.5455012314 -0.0177979323
H 6.9444975464 -1.3868646539 -0.0734549762
H 5.5786431952 -1.1190351945 1.0221483995
H 0.4257144681 -1.7563457173 0.803050417
H -0.7429098348 -1.7344590998 -0.5706602645
H -2.8202560398 2.3060968263 -2.1027128145
H -3.3600601947 3.5182318259 -0.901165988
H -0.6487431793 2.0892201234 -0.9860982573
H -0.9416792393 3.7999792877 -1.3247117803
H -1.1676611942 3.1710260847 0.3190144595
H -4.9734828733 -1.7121091533 -0.8036477193
H -5.6643236006 -1.6076544824 0.843625785
H -6.2162251553 0.8175637069 0.3801470593
H -5.622614941 0.6071902123 -1.2742432595
H -7.0494566485 -0.2876005034 -0.7301323984
*
