! r2scan-3c def2/J RI DEFGRID2 scfconv6 printgap
%output
    printlevel normal
end
%cpcm
    smd true
    smdsolvent "water"
end
* xyz 0 1
C -2.5473443504 -0.7117755732 -0.0016328322
C -1.2146412657 -0.0124915667 -0.0004706436
C -1.205585385 1.3792099701 0.0005530367
C -0.0254347677 2.0935388381 0.0009690475
C 1.1826654714 1.4162066305 -0.0004936458
C 1.2159847776 0.0338957023 -0.0010256014
C 0.0098340735 -0.6810249085 0.0002305864
O 0.1250818746 -2.0426555358 0.0020711154
C 2.5065507837 -0.72651707 -0.0010258661
H -3.1221879691 -0.4014737869 -0.8728553995
H -2.4699104502 -1.7955327684 -0.0203111652
H -3.1099009813 -0.4299606817 0.8872614048
H -2.1512383857 1.9014898223 0.0009670028
H -0.0429056755 3.1727312198 0.0019618834
H 2.1120452428 1.966313923 -0.0012196646
H -0.7475555618 -2.4606155854 0.0062181133
H 2.5752269386 -1.3446921194 0.8930531443
H 2.5457520435 -1.3951098978 -0.8596417824
H 3.354290915 -0.0484936651 -0.0338001667
*
