! pbe def2-sv(p) def2/J RI DEFGRID1 loosescf d4 GCP(DFT/SV(P)) printgap
%output
    printlevel normal
end
* xyz 0 1
C 4.7061851665 1.0208781727 -1.6652180547
C 4.743742658 -0.2421960087 -0.8293076309
O 3.4455274558 -0.8499604602 -0.7063243017
P 2.2685200763 -0.1825598731 0.1248288413
S 2.8230526962 0.7076210465 1.7837272586
O 1.2535513844 -1.3876698965 0.276418554
C 1.2367032624 -2.2494249718 1.4310817373
C 2.4900382776 -3.0932652664 1.5233912618
S 1.22760965 0.9789786862 -1.2935418228
C 0.2586906959 1.9468013758 -0.0974464376
S -0.7849097432 0.9529264758 1.0014632973
P -2.1264261063 0.108755934 -0.4481569076
S -1.476921242 -1.2895968447 -1.6491359982
O -2.7060461527 1.3465329902 -1.2255126457
C -3.4439941974 2.4254491488 -0.591350024
C -4.9346567156 2.1690987757 -0.6672495804
O -3.3201448403 -0.3440083758 0.4978705467
C -3.2113903309 -1.5250609201 1.3168586746
C -4.6053430611 -1.9053340245 1.7730613844
H 4.2304884251 0.8256256063 -2.6233333378
H 4.1419212244 1.7945738503 -1.1458923384
H 5.719380677 1.3732993787 -1.8296518652
H 5.1195389194 -0.0258771898 0.176084052
H 5.352180854 -1.0178345233 -1.2962140464
H 1.1187748699 -1.6257566655 2.3238969548
H 0.3448333595 -2.8609705208 1.2830814168
H 2.3928124144 -3.7934511674 2.3470741256
H 2.6411885296 -3.6397803475 0.5959865803
H 3.3537282532 -2.4531580401 1.7010551131
H -0.3527115954 2.6289167184 -0.6830928173
H 0.9361218967 2.4891387773 0.5622012047
H -3.11208282 2.5233943139 0.4455718666
H -3.1663987045 3.3146143418 -1.1605882301
H -5.1933613604 1.2799824012 -0.0991391133
H -5.4625162188 3.0243773822 -0.2569100466
H -5.2348167921 2.0238128997 -1.701319508
H -2.752323166 -2.319866333 0.7191761519
H -2.561731454 -1.2920286782 2.1653924198
H -5.2336200134 -2.1178997593 0.9127323066
H -4.5455767386 -2.7892412179 2.3993591708
H -5.0455523331 -1.0914206688 2.3416414277
*
