  23
        -26.73757867
 C         -5.5369494047       -0.9352083690        0.1861299970
 C         -4.4896417612        0.0212971963       -0.3715632430
 C         -3.1178926065       -0.2093606430        0.2585004393
 C         -2.0636093395        0.7462018717       -0.2949880850
 C         -0.6931380021        0.5055041236        0.3330493992
 C          0.3617354881        1.4587645117       -0.2232441362
 C          1.7259287390        1.2582824134        0.4052808255
 Br         2.4990652924       -0.4994406613       -0.0571869090
 H         -5.2503419671       -1.9668437113       -0.0053373588
 H         -5.6396974959       -0.8029829839        1.2608849474
 H         -6.5041566783       -0.7554875217       -0.2765701004
 H         -4.8031454177        1.0510805656       -0.1858470101
 H         -4.4159924140       -0.1120734995       -1.4531739265
 H         -2.8048002796       -1.2393252515        0.0718999754
 H         -3.1926540338       -0.0783567441        1.3406414941
 H         -2.3743344921        1.7760521969       -0.1043043398
 H         -1.9930627365        0.6164403036       -1.3773279298
 H         -0.3876141157       -0.5258098108        0.1402061092
 H         -0.7638629269        0.6341321867        1.4159753478
 H          0.4331545352        1.3349470588       -1.3060744061
 H          0.0619833766        2.4904794247       -0.0227438991
 H          2.4497851621        1.9887336400        0.0491184964
 H          1.6788745704        1.2743331770        1.4926918917
