! pbe def2-sv(p) def2/J RI DEFGRID1 loosescf d4 GCP(DFT/SV(P)) printgap
%output
    printlevel normal
end
* xyz 0 1
C 3.1100868356 2.2685937929 -1.9067956858
C 3.8621487796 1.9618469021 -0.6271569861
O 3.6682848069 0.6011651339 -0.2102124524
P 2.2961790063 0.0932951479 0.4165792638
S 1.5148065304 1.37580459 1.6796813259
O 2.7322571033 -1.3018545083 1.0185197535
C 2.8469232992 -1.5658182662 2.435819846
C 1.7631861248 -2.5307635731 2.8742665239
S 1.2086589441 -0.5528317799 -1.2882606805
C 0.1420349174 -1.7857010608 -0.4899541726
S -1.0065592311 -1.0801419321 0.7164832118
P -2.2353402445 -0.0572877559 -0.6964095494
S -2.4191269869 -0.9244112558 -2.438008066
O -1.6388141865 1.3977809919 -0.8150666603
C -1.6645066738 2.3567894138 0.2740107212
C -0.8855101238 3.5746606449 -0.1725230329
O -3.5866970517 0.2071449601 0.0986784684
C -4.6729458389 -0.7386517376 0.1169304268
C -4.3127028372 -2.0192102124 0.8412557305
H 3.3280030025 3.2840773693 -2.2216998617
H 3.4008351725 1.5750896292 -2.6916834302
H 2.0364228305 2.170240026 -1.7432349694
H 3.5364317385 2.6228436964 0.1835914567
H 4.9407492913 2.048011303 -0.7643449634
H 3.8427132919 -1.9902705381 2.5714870227
H 2.7708369061 -0.6210119512 2.9829908361
H 0.7795089124 -2.0917289716 2.712535327
H 1.8342966007 -3.4597757925 2.315262804
H 1.8854622713 -2.7420791496 3.9315594904
H 0.7529441136 -2.5168199278 0.0325529337
H -0.4272638532 -2.2449307863 -1.2994340412
H -2.7070479869 2.5985121796 0.4867416721
H -1.2097479215 1.8988670584 1.1574861247
H -1.2879531974 3.954531906 -1.1070927759
H -0.9553731222 4.3386103311 0.594709409
H 0.1605668599 3.3166910842 -0.315008327
H -5.4738865785 -0.1996129414 0.6249293231
H -4.9616321852 -0.9491557299 -0.9173064733
H -3.5688273398 -2.5736934384 0.2714374338
H -3.9087570382 -1.7970104627 1.8258791091
H -5.2024950381 -2.6316539225 0.9458237665
*
