! pbe def2-sv(p) def2/J RI DEFGRID1 loosescf d4 GCP(DFT/SV(P)) printgap
%output
    printlevel normal
end
* xyz 0 1
C 2.1831394705 -3.7726148785 0.5275850315
C 2.7962120355 -2.3867324666 0.4767223242
O 2.2744058074 -1.699962 -0.6769031973
C 2.0822489336 -0.4039277657 -0.626143409
O 2.3077763131 0.3039139033 0.3355298644
C 1.5617038392 0.1452668415 -1.9419051837
C 0.2859038113 0.9653276781 -1.7278385973
H 0.1159843441 1.6133062193 -2.5908154805
C 0.3742812904 1.8205371578 -0.4766316884
O -0.3231951519 1.6107873528 0.5014945638
O 1.2036815744 2.8085073168 -0.6235798649
C 1.4744321846 3.6916569807 0.4886134112
C 2.930317072 3.5495802684 0.8954112586
S -1.202389037 -0.0802423718 -1.6226109409
P -1.637968266 -0.4257279742 0.4381479729
S -0.3289736831 -1.0857767513 1.7386328779
O -2.6542628461 0.6701260494 0.9706063389
C -3.9013656498 0.9520299859 0.3090463263
O -2.7233321902 -1.5905788283 0.1387714128
C -2.3351028575 -2.9182877709 -0.2102113444
H 1.1168585181 -3.6943073636 0.7220501156
H 2.3404207874 -4.2838841553 -0.4170357899
H 2.6453721148 -4.337773565 1.3295193886
H 3.8824768728 -2.4322734698 0.3593846106
H 2.5482604192 -1.8061859562 1.370515925
H 1.3717414496 -0.6727586214 -2.6351370626
H 2.3338031742 0.80403383 -2.3448497379
H 1.2569372538 4.6963940351 0.1210264995
H 0.803244351 3.4343759755 1.311766986
H 3.130836891 4.1979461638 1.7416675673
H 3.1310133856 2.518621175 1.1781301609
H 3.5788841559 3.8220303816 0.06844795
H -3.7418088272 1.08440553 -0.761436635
H -4.2587143826 1.8730764071 0.7628377931
H -4.6005319631 0.1356331425 0.4810421178
H -1.9741715767 -2.9446148469 -1.2383360613
H -3.2306043532 -3.5249840785 -0.1023012202
H -1.555083799 -3.2676160638 0.4691896432
*
