! r2scan-3c def2/J RI DEFGRID2 scfconv6 printgap
%output
    printlevel normal
end
* xyz 0 1
C 4.9678935462 1.1194939946 0.0134247918
C 3.7246012541 1.2780068093 -0.8356630662
O 2.9494275498 0.061186121 -0.8729076992
P 2.1620675739 -0.4624150738 0.3942164693
S 1.5447454374 0.8862855701 1.6831245635
O 3.1845318467 -1.5066028402 1.0195334248
C 3.0107163942 -2.0548256937 2.3360040817
C 1.8332115209 -3.0066139345 2.3927769825
S 0.7322451832 -1.6969421249 -0.5802836311
C 0.3281028936 -0.6473142563 -2.0068808592
S -0.1339221381 1.0480182851 -1.5574940259
P -2.0488743351 0.6232667915 -0.74922776
S -2.970199053 -0.9534726444 -1.4616162464
O -2.67239695 2.0369624811 -1.0773695994
C -4.0955590238 2.2498853068 -1.1895360249
C -4.7849979036 2.1954623565 0.1576171271
O -1.9037895509 0.6701252101 0.833006556
C -1.8333288938 -0.4852431319 1.6877768707
C -3.1734829529 -0.7363514096 2.3496094539
H 5.5718110463 2.0183875494 -0.0605923388
H 4.686490088 0.966220743 1.054582039
H 5.546071126 0.2634589248 -0.3240986103
H 3.9664295702 1.46670516 -1.8822997595
H 3.0889998876 2.0829104136 -0.4524923349
H 3.9537290338 -2.5638530996 2.5385277715
H 2.8728456525 -1.2274339179 3.040271311
H 0.910058119 -2.4628819387 2.1899202734
H 1.9430843247 -3.78990735 1.647456145
H 1.7722816513 -3.4513832407 3.3806902172
H -0.5106390966 -1.1370882109 -2.5038337918
H 1.1919188174 -0.5762863027 -2.6618265291
H -4.1744508589 3.2380356443 -1.6451480649
H -4.5053241681 1.49379834 -1.8671197931
H -5.8256910295 2.4812782227 0.0403454372
H -4.737424214 1.1849149599 0.5587961469
H -4.2986487483 2.8736819545 0.8540426934
H -1.5269807116 -1.3572566158 1.1014132238
H -1.0605904893 -0.2441040489 2.4215763748
H -3.9113120309 -1.0173972937 1.6008495149
H -3.0688806747 -1.5485322452 3.0615891184
H -3.5082207247 0.1571310675 2.8690131047
*
