! pbe def2-sv(p) def2/J RI DEFGRID1 loosescf d4 GCP(DFT/SV(P)) printgap
%output
    printlevel normal
end
* xyz 0 1
C 5.2253363674 1.3527928419 -0.2268451205
C 4.713514062 -0.0630668554 -0.0548540819
O 3.5795801329 -0.08761911 0.8466444387
P 2.079667642 -0.2318111848 0.3570079813
S 0.8928151858 -0.3012348793 1.9053575329
O 2.0114560336 -1.4859380877 -0.6362075491
C 1.7488821751 -2.8194988827 -0.1668022516
C 2.9066800931 -3.3676258875 0.6412638103
S 1.8687183562 1.2963746018 -1.0775636124
C 0.147915654 1.0337277102 -1.5676196788
S -1.0371557599 1.7241315918 -0.3663254906
P -2.3656236764 0.0615409254 -0.2499149313
S -1.5865743026 -1.7003401897 -0.5846269073
O -3.4953892346 0.314068997 -1.3183617065
C -4.2842090501 1.5291063833 -1.3969671066
C -3.8610757154 2.3493635426 -2.5994433215
O -3.1607554312 0.3317727751 1.0964087967
C -2.6237312615 0.3043254377 2.4310471265
C -2.5647733899 -1.1090334302 2.972974744
H 5.4576478781 1.7828267409 0.7434035697
H 6.1236362747 1.3332087886 -0.8357347121
H 4.4760514482 1.9721738279 -0.7152129414
H 5.4605237811 -0.6959884053 0.4277863048
H 4.4195441451 -0.4995964158 -1.0126232573
H 0.8285694512 -2.8062837562 0.4252771966
H 1.5758254539 -3.3908089503 -1.0798956593
H 2.6838858766 -4.3881081813 0.9362824064
H 3.8205390327 -3.3535572562 0.0526868602
H 3.0489987657 -2.7638911895 1.5375481383
H -0.0467050842 -0.0371804292 -1.6707175745
H 0.0295408586 1.5544456008 -2.5141372419
H -5.314542792 1.1836712956 -1.4935701654
H -4.1713345448 2.0923467989 -0.4686863236
H -3.8904188478 1.7355829205 -3.4954112921
H -4.5440693283 3.1848854762 -2.7151589286
H -2.8528881602 2.7329310712 -2.464193234
H -1.6301964427 0.7598712565 2.4368332284
H -3.3167950443 0.9220960486 3.0051942045
H -2.2446001956 -1.0791438553 4.0091703901
H -3.5410349184 -1.5812909233 2.903994317
H -1.8456473943 -1.6967189313 2.4060813105
*
