! pbe def2-sv(p) def2/J RI DEFGRID1 loosescf d4 GCP(DFT/SV(P)) printgap
%output
    printlevel normal
end
* xyz 0 1
C 4.240702435 2.0296050853 -1.0574051039
C 4.6419096112 0.6148837525 -0.6942794718
O 3.5196679892 -0.2880627167 -0.6769166878
P 2.3401365262 -0.1709341142 0.382263079
S 2.8598595853 0.2884535436 2.2091928705
O 1.6822374131 -1.6011612286 0.2974119513
C 1.4456444419 -2.296035122 -0.954134319
C 0.640162576 -3.5376784642 -0.6395858272
S 0.9594904869 1.1680162745 -0.5395874224
C 0.0278163253 1.5581325329 0.9604467461
S -1.0237498854 0.1967525487 1.5407826808
P -2.339013868 0.0724043767 -0.1222491348
S -1.803097569 -0.8919207185 -1.7453032207
O -2.7109752069 1.5975878267 -0.3043516259
C -2.9510005087 2.222220853 -1.5864901377
C -1.8836743814 3.2627916631 -1.8614830881
O -3.6798122697 -0.4963328472 0.5196045639
C -3.9504645706 -1.9039089491 0.6093062958
C -3.1378199904 -2.5601874139 1.7074605031
H 3.6418061914 2.4646011159 -0.2588991249
H 5.134742914 2.6298245787 -1.1922592015
H 3.6598188042 2.0347525559 -1.9764453631
H 5.1173928675 0.5899037794 0.2908661959
H 5.308547936 0.1806335665 -1.4407641554
H 0.899428685 -1.6314460134 -1.630271407
H 2.4142756252 -2.5414004224 -1.3924703066
H 1.155594552 -4.1403600749 0.102542592
H -0.3371313075 -3.2598768404 -0.2534685809
H 0.5058800875 -4.1115126858 -1.5505259816
H -0.5865220723 2.4280559448 0.7448237351
H 0.7282083017 1.7548361509 1.7739688872
H -2.9541282517 1.4518172534 -2.364126315
H -3.941897186 2.6727190232 -1.5119155386
H -0.9038781701 2.7910383877 -1.9221474389
H -2.1004457065 3.7491367925 -2.8069544351
H -1.8711670242 4.0092158759 -1.0719966106
H -5.0204136889 -1.9584836349 0.8141054261
H -3.7344901832 -2.3616818737 -0.362460671
H -3.3269753909 -2.0729187876 2.6603674648
H -3.404039604 -3.6099209224 1.7780609922
H -2.0733903065 -2.4774455692 1.485982541
*
