! r2scan-3c def2/J RI DEFGRID2 scfconv6 printgap
%output
    printlevel normal
end
* xyz 0 1
C 5.2857410095 -1.2616573376 -1.2357346577
C 3.8714640898 -1.6104064384 -1.6582986318
O 2.9854011267 -1.6450650951 -0.5222667967
P 2.1584396415 -0.3789530687 -0.0374764253
S 3.1554982277 1.2643982277 0.370103769
O 1.3369100872 -0.9949743259 1.1641307343
C 1.7630733109 -0.8393162398 2.5345513788
C 3.0257048165 -1.6267454844 2.8108707678
S 0.6760149365 -0.1903752263 -1.5405298415
C 0.0935456595 1.4467121559 -1.0280321282
S -0.8252355197 1.4041095573 0.5257230603
P -2.5463683916 0.4150285507 -0.2688980682
S -3.0319528677 0.9076348749 -2.0975326067
O -3.6202093585 0.6005763113 0.8878779682
C -3.9733999919 1.8507286597 1.5108566761
C -4.383144626 2.9105549982 0.5103565084
O -2.2821419914 -1.1357543782 -0.1943101137
C -1.9855215889 -1.8408220081 1.0373674085
C -1.2427056382 -3.1106713037 0.6780359397
H 5.936745946 -1.2973507561 -2.1032591446
H 5.3176410962 -0.2607161268 -0.8109523702
H 5.639153591 -1.9705848497 -0.4922297122
H 3.818442267 -2.6176129537 -2.0759044609
H 3.4910492031 -0.8934708731 -2.3918595226
H 1.9168887997 0.2263291924 2.7322479276
H 0.9184311078 -1.207020175 3.118346119
H 2.8853340047 -2.6701007503 2.5416778022
H 3.8466299524 -1.2191016157 2.2218678097
H 3.2758163763 -1.5526927668 3.8644722108
H -0.5596965877 1.8097458361 -1.8223657632
H 0.9483397917 2.106222876 -0.8746933883
H -4.8009075912 1.582003423 2.1697884959
H -3.1187006809 2.1880351461 2.10377805
H -4.721112558 3.7951943367 1.0403275275
H -3.5381987477 3.1771168636 -0.1230117929
H -5.1844339534 2.5426176098 -0.126077065
H -1.3812920664 -1.1900913705 1.6766535768
H -2.9356775853 -2.0534880842 1.5308243367
H -0.286209038 -2.8699073605 0.2200922529
H -1.0725596803 -3.6921272251 1.5784260923
H -1.8289935123 -3.6950290858 -0.0252789396
*
