! pbe def2-sv(p) def2/J RI DEFGRID1 loosescf d4 GCP(DFT/SV(P)) printgap
%output
    printlevel normal
end
* xyz 0 1
C 4.9200648193 0.2689672319 -1.6900485857
C 4.5834508444 -0.8815084436 -0.7574126555
O 3.1895972566 -1.2123346853 -0.9144436701
C 2.4163345835 -1.2838229697 0.1473514543
O 2.7918471505 -1.1642398464 1.2916827811
C 0.9709786681 -1.5351782302 -0.2504309152
C 0.4467327947 -0.3489503987 -1.0677878896
H 1.0449546751 -0.2312061866 -1.974111469
C 0.4987882436 0.9204336867 -0.2450203686
O -0.5028833518 1.4741815474 0.1691593003
O 1.7167423386 1.3213134531 -0.0263391947
C 1.9325416169 2.4436169133 0.8632260183
C 3.2901537888 2.2763437029 1.5170642012
S -1.2683930563 -0.5981906097 -1.6286349992
P -2.426530458 -0.1168677298 0.0860683913
S -1.8053444112 -0.5588253515 1.9047756804
O -3.1777190788 1.2610766602 -0.1496547573
C -3.0569592636 2.4243433757 0.6701162049
O -3.7173525684 -0.9916802066 -0.3002052145
C -3.6938419 -2.4196173258 -0.2507757125
H 4.7452391169 -0.0233717569 -2.7210531141
H 4.2974607463 1.1293370111 -1.4597773518
H 5.9639914805 0.5374758126 -1.5666731489
H 4.7637366137 -0.6234570278 0.2895510387
H 5.1511151947 -1.7784867374 -1.0155010038
H 0.3794893496 -1.6727362046 0.6570966183
H 0.9175301962 -2.4323742116 -0.8668246221
H 1.8805690106 3.3542701494 0.2606022609
H 1.1261846802 2.453938638 1.6018618297
H 4.0798288573 2.3261832198 0.7737294857
H 3.4338961636 3.0679314584 2.2446842866
H 3.3395703356 1.3143829464 2.0220211687
H -4.0644064398 2.8180764337 0.7878942344
H -2.4127184968 3.1463010167 0.1716225652
H -2.6350300667 2.1650069395 1.6426046604
H -3.1183856419 -2.8163266625 -1.0875580921
H -4.7327202615 -2.7318646761 -0.3208362999
H -3.2604678275 -2.7552722942 0.6938569033
*
