! pbe def2-sv(p) def2/J RI DEFGRID1 loosescf d4 GCP(DFT/SV(P)) printgap
%output
    printlevel normal
end
* xyz 0 1
C 4.423663296 1.6903889154 -0.2224538572
C 3.2858185393 0.9889772919 -0.935114348
O 2.0560002309 1.104484063 -0.1689368825
P 1.537532157 -0.0270567448 0.8056716727
S 0.4011313541 0.6327194064 2.2623183741
O 2.9055721446 -0.6226758873 1.3768945025
C 2.9477268088 -1.4299400314 2.5612356273
C 2.2395971813 -2.7554974834 2.3696325989
S 0.9694400667 -1.64449847 -0.4997939224
C 0.4911914511 -0.8349128889 -2.0466601731
S -1.3046222777 -0.8030146838 -2.3961230556
P -1.9585554727 0.2905557786 -0.7279137714
S -3.7155071498 1.142649752 -0.8075731962
O -0.7386795931 1.2910183896 -0.438270731
C -0.7864992294 2.6753172368 -0.8260038636
C -0.5939048572 2.8532742552 -2.3187464472
O -1.7723636413 -0.8037995917 0.4026000139
C -2.6403192884 -0.967381458 1.5441271648
C -3.1767763326 -2.3838574462 1.5537453779
H 5.3081706351 1.65746191 -0.8510465887
H 4.1609446 2.7263713085 -0.0263218503
H 4.6370152046 1.1988723724 0.7227376001
H 3.5132093651 -0.0670267341 -1.094901592
H 3.0662943134 1.4743628649 -1.8885982014
H 4.0131912763 -1.5658190957 2.7515009375
H 2.4910335178 -0.8654077755 3.3809142719
H 1.177098884 -2.5809611905 2.197107805
H 2.6487761985 -3.2872557696 1.5145063263
H 2.3550085483 -3.3602994356 3.2631961147
H 0.9142036876 -1.4275904713 -2.8541521096
H 0.8706093433 0.1821720058 -2.0567469669
H -1.7512639406 3.0848148952 -0.5111242437
H 0.0160637278 3.1375330545 -0.2483204293
H -0.6423879974 3.9109865725 -2.5570755146
H 0.3693976424 2.4621994047 -2.6359336022
H -1.3864596593 2.3338911786 -2.8574346373
H -2.0302631183 -0.7528062589 2.4250606192
H -3.4508828782 -0.2337408425 1.4798229074
H -3.7936423309 -2.5552620325 0.6745041658
H -2.3544641235 -3.0941517533 1.5517767497
H -3.7764166704 -2.5282502012 2.4464077124
*
