! pbe def2-sv(p) def2/J RI DEFGRID1 loosescf d4 GCP(DFT/SV(P)) printgap
%output
    printlevel normal
end
* xyz 0 1
C 5.182762564 -0.8249108261 -2.3693179093
C 3.7423472218 -1.1319064293 -2.0115512562
O 3.5031963046 -0.6561929548 -0.6720252792
P 2.055556909 -0.264149298 -0.1518110854
S 1.0336319448 0.8205903379 -1.4313162929
O 2.3571754705 0.3724787688 1.2621452257
C 2.6164528518 1.7780375776 1.449821125
C 3.8701404745 2.2227479185 0.7287472147
S 1.3104084894 -2.14411648 0.442416866
C -0.3224694595 -1.6924655865 1.0897748049
S -1.5343523374 -1.3231475209 -0.2177040794
P -2.2374284408 0.5351447232 0.5520731762
S -0.9417268244 1.6267002859 1.5303429359
O -3.4341299633 0.1733272229 1.5101104338
C -4.5740797588 -0.6290109803 1.1021401007
C -4.5234542632 -1.9854607275 1.7762145739
O -3.0039705263 1.2201966718 -0.6543886949
C -2.3885634646 1.817907996 -1.8120175039
C -2.3672427254 0.8475528606 -2.9757501096
H 5.849379682 -1.2915110332 -1.6499899132
H 5.3928031149 -1.2134146666 -3.3603475907
H 5.3521631382 0.2482611246 -2.3621324553
H 3.5480763004 -2.2072891369 -2.0261356008
H 3.0444777874 -0.6306451502 -2.6911784651
H 1.7413629381 2.3400756313 1.107841099
H 2.7066482525 1.8794685376 2.532113529
H 4.0795376963 3.2579135542 0.9793378444
H 4.7110053157 1.5986559103 1.0201755762
H 3.7246788366 2.1415853187 -0.3480044036
H -0.2276278044 -0.8149939123 1.7342121412
H -0.6619227727 -2.5618109402 1.646483627
H -5.4454798593 -0.0565469512 1.423026971
H -4.5760224341 -0.7229459216 0.0146365673
H -4.4209558826 -1.8622147933 2.8508073222
H -5.4438718962 -2.5198065708 1.5634141754
H -3.683291435 -2.5658742515 1.4032877451
H -3.0115109286 2.687203379 -2.0305864161
H -1.3775421704 2.1488641993 -1.5585812971
H -3.3689465316 0.4778466413 -3.1750154218
H -1.9890829475 1.3623255167 -3.8528133203
H -1.7119075082 0.0073842292 -2.7580045028
*
