! r2scan-3c def2/J RI DEFGRID2 scfconv6 printgap
%output
    printlevel normal
end
* xyz 0 1
C 5.0832772969 -1.6353904131 -0.5302285317
C 4.5819472574 -0.6445555358 -1.5596195683
O 3.1768931301 -0.3585323805 -1.3953945604
P 2.6304195455 0.4275634833 -0.1281592595
S 3.8012704917 1.8148287002 0.6040980473
O 2.2873857188 -0.7698405899 0.8694765135
C 2.2024289486 -0.581161485 2.2902602469
C 1.0209307614 0.2805003065 2.6861368158
S 0.7833724644 1.0617324516 -0.9358721938
C 0.1564744533 -0.5538460475 -1.5016000822
S -0.6863079356 -1.4968590649 -0.2096922916
P -2.3711242942 -0.2309019131 -0.0572231986
S -3.0190219055 0.5248078013 -1.7532023384
O -1.8927918416 0.8229691773 1.0209338928
C -2.4261913888 2.1591853625 1.0783227948
C -3.8515834633 2.1563096911 1.5882656501
O -3.3881613528 -1.0962292233 0.8027411194
C -4.0241550208 -2.2899462416 0.3037268108
C -5.3383281814 -1.9680023467 -0.381467594
H 5.0528009169 -1.1857763518 0.4613522171
H 4.4637539522 -2.5284335547 -0.5319149966
H 6.1087342472 -1.9053059766 -0.7624352748
H 4.6489195911 -1.041719254 -2.5733421304
H 5.1354397099 0.2970823508 -1.490925492
H 2.1147531171 -1.5936557662 2.6859425941
H 3.1350167882 -0.1205536797 2.6323162788
H 0.0885168245 -0.1563646179 2.3368613227
H 0.9888594264 0.3741115959 3.7668519962
H 1.1286619193 1.2738386385 2.2486130551
H 0.9829050035 -1.1577574126 -1.8625769846
H -0.5548028739 -0.331006314 -2.2978260296
H -1.7501819976 2.686744588 1.7522632168
H -2.3685339411 2.6020946406 0.0785584877
H -3.9041761701 1.6559028929 2.5513933547
H -4.2031938492 3.1782262219 1.6887680854
H -4.4907203885 1.627922005 0.8814666424
H -3.3402726303 -2.8041785031 -0.3776079194
H -4.1805176151 -2.903224715 1.1930940756
H -5.1674208396 -1.3369042624 -1.2508397068
H -5.8096781683 -2.8912619902 -0.7025542695
H -6.0005701317 -1.4468164721 0.3042308143
*
