! pbe def2-sv(p) def2/J RI DEFGRID1 loosescf d4 GCP(DFT/SV(P)) printgap
%output
    printlevel normal
end
* xyz 0 1
C 4.2556746423 -2.1190284936 0.1028937101
C 2.8168253491 -2.5107314049 -0.1919798806
O 2.0530150938 -1.3783186145 -0.6499905388
C 2.1066841118 -1.065189809 -1.9363569049
O 2.7410699351 -1.6849200665 -2.7587704339
C 1.2963286135 0.17038709 -2.2676975255
C 0.2964405299 0.5532079977 -1.1866353323
H -0.1899013511 1.5007904086 -1.4434722408
C 0.9333125265 0.725867446 0.1793087187
O 0.4262715318 0.2910812359 1.1934776179
O 2.0362910228 1.423055052 0.1230841574
C 2.6881734429 1.7617964688 1.3653023296
C 2.1008430214 3.0390566872 1.9424864246
S -1.0196013172 -0.7030302385 -1.0249897012
P -2.1159654621 0.2032510567 0.5569831302
S -1.966805455 2.1445957422 0.7607522002
O -3.6078798219 -0.2435336143 0.1448187556
C -4.2619527796 0.30937495 -0.9994486816
O -1.9888715394 -0.6258143709 1.8953310364
C -2.1689491852 -2.0535648612 1.9373126214
H 4.7861596258 -2.9807503679 0.4942939019
H 4.745679228 -1.7864526412 -0.8091644421
H 4.2858442038 -1.3172635748 0.836301576
H 2.2995547802 -2.8411678742 0.7094331354
H 2.7761072507 -3.2861993009 -0.9619699311
H 0.7872308903 -0.0033104239 -3.2164315088
H 2.002146264 0.9935878255 -2.4058205229
H 2.5659448466 0.9279786314 2.0618370158
H 3.7365493616 1.8897735058 1.0954362335
H 2.6157741153 3.2894495997 2.8639279851
H 2.2093023758 3.856373646 1.2351581753
H 1.0417856659 2.9023263378 2.1555498788
H -5.3034247781 0.009761212 -0.9159973769
H -3.8176560844 -0.0915960229 -1.9104615605
H -4.1768316244 1.3974267353 -0.9894351423
H -1.5080967496 -2.5346310515 1.2156852464
H -3.2060964485 -2.3023811281 1.7185375837
H -1.9036647503 -2.341445757 2.951311652
*
