! r2scan-3c def2/J RI DEFGRID2 scfconv6 printgap
%output
    printlevel normal
end
%cpcm
    smd true
    smdsolvent "water"
end
* xyz 0 1
C 3.9650050896 -1.873461077 -2.1649484053
C 4.4865850176 -1.5597678331 -0.7780511543
O 3.4285895516 -1.2719319935 0.1555662216
P 2.4886375499 0.0018218823 0.0197126554
S 3.3535561544 1.6582181675 -0.5480491187
O 1.8648139074 0.1165936269 1.463306334
C 1.3007616138 -1.0165046788 2.1682143695
C 2.2573078609 -1.4967931001 3.2397299895
S 0.8851331331 -0.6887586617 -1.2197333951
C 0.2382828711 0.951161108 -1.6140583884
S -0.4699789001 1.7892729693 -0.1675729681
P -2.2139928486 0.6017767443 -0.05854501
S -3.0478886603 0.1624841342 -1.7803978783
O -2.9657953123 1.5572628074 0.9569550872
C -4.1383520695 1.1577105314 1.7001943681
C -5.3941747999 1.2299992789 0.8540729008
O -1.8494908672 -0.6704241214 0.8323520771
C -1.9790326121 -2.0321135903 0.377152416
C -3.324301492 -2.5992333881 0.7842824295
H 3.2048276147 -2.6492211332 -2.1194611217
H 3.5295374072 -0.9804079755 -2.6105080877
H 4.7875651813 -2.2096419485 -2.7879629343
H 5.1618970905 -0.6994971381 -0.8067407506
H 4.9947756315 -2.4179113385 -0.3359890036
H 0.3677150534 -0.6443457129 2.5975419223
H 1.0871305976 -1.809526491 1.4462095682
H 1.7910029264 -2.3013920188 3.799609965
H 3.1759398454 -1.858739626 2.7855428954
H 2.4980696189 -0.6805098463 3.9150856067
H -0.5317533715 0.8179389762 -2.375087393
H 1.0509395448 1.5818416141 -1.9742642103
H -3.9818050206 0.1487265248 2.0902575172
H -4.1759653488 1.8697032276 2.5267166872
H -5.3342440528 0.5324918479 0.0207929272
H -6.2544773423 0.9793065103 1.4666426021
H -5.5181842437 2.2324246579 0.4528786425
H -1.8594249263 -2.0614471276 -0.7096883972
H -1.1566884738 -2.5686304193 0.8512609804
H -4.1232165411 -2.0521759035 0.287169071
H -3.3751669291 -3.6411114949 0.4853185182
H -3.4567636614 -2.5288690109 1.8605459822
*
