! pbe def2-sv(p) def2/J RI DEFGRID1 loosescf d4 GCP(DFT/SV(P)) printgap
%output
    printlevel normal
end
* xyz 0 1
C 5.1102380742 -3.0810640186 0.3066583942
C 4.3584301875 -1.7825127522 0.5196679549
O 3.1249668001 -1.8556675328 -0.2255078355
C 2.3665153131 -0.7862856782 -0.2681179129
O 2.6456640832 0.2712298982 0.2630879476
C 1.0864986796 -1.0249728916 -1.0322601892
C 0.4373959447 0.30212941 -1.4066246269
H 0.885332274 0.7387562852 -2.3002045945
C 0.4945587377 1.3137825145 -0.2767555554
O -0.0599675642 1.1194676254 0.7893989091
O 1.0563084345 2.4310564276 -0.6499227491
C 1.2010642531 3.5035773981 0.3051496507
C 2.6543361783 3.6141959633 0.7336701899
S -1.3385993623 0.109840968 -1.7886762775
P -2.2074831472 -0.2727703864 0.0973971936
S -1.4577521986 -1.5806352459 1.3646279477
O -2.682748851 1.1504465244 0.6268030837
C -2.7926877183 1.4533579453 2.0239330185
O -3.6433014774 -0.768557756 -0.4257964107
C -3.8392419193 -2.0799692565 -0.9634010749
H 6.0397265004 -3.0522813657 0.8652599957
H 4.5097972814 -3.9174210517 0.6513067585
H 5.3287260291 -3.2168764006 -0.7481042201
H 4.9248072222 -0.9167463019 0.1626165618
H 4.1116394451 -1.6228509678 1.5738332296
H 0.435770005 -1.5908527767 -0.3544333323
H 1.2722513281 -1.639662665 -1.9111721898
H 0.868573268 4.4002426389 -0.220669855
H 0.5496232883 3.2988005906 1.1589526076
H 3.2798749929 3.8402077417 -0.1245875779
H 2.7533956088 4.4019533558 1.4728943495
H 2.9810604588 2.6702024038 1.1634930465
H -1.8843419248 1.1451005144 2.5432478226
H -3.6567838913 0.943857903 2.4487560733
H -2.9151091721 2.5321704583 2.07719393
H -4.9146408048 -2.2378552478 -0.9676345336
H -3.3471815491 -2.8197878123 -0.3289373842
H -3.4395408523 -2.1299143452 -1.975728175
*
