! wb97x-v def2-tzvp def2/J RIJCOSX DEFGRID2 scfconv7 GCP(DFT/TZ) printgap
%output
    printlevel normal
end
* xyz 0 1
C 1.2158126021989175 0.5747534707103664 -2.011150605794392e-05
C 0.3043066045059306 -0.6214168131461261 -2.8525844287060415e-05
Br -1.570036446188843 0.04370285742829089 -1.5018561746943134e-05
Cl 2.9447968514806866 -0.04862618802851528 -3.3447616741122596e-05
H 1.1071792188432397 1.1847258223798485 -0.8968368648189868
H 1.1071923177861376 1.1847053395904492 0.8968117098070623
H 0.40696679674225233 -1.2287235824003946 0.8976851949498155
H 0.40695807995993766 -1.2287078253582342 -0.8977540052393587
*
