! pbe def2-sv(p) def2/J RI DEFGRID1 loosescf d4 GCP(DFT/SV(P)) printgap
%output
    printlevel normal
end
* xyz 0 1
C 5.2688619085 0.059070416 -0.7755138094
C 4.8368070072 -1.2961550281 -1.3114489174
O 3.5747634491 -1.7015338922 -0.7456860447
C 2.4671865655 -1.2570866789 -1.3032854844
O 2.4226875537 -0.5324025998 -2.2720855742
C 1.2380618475 -1.8033277364 -0.5978145364
C 0.2123165943 -0.6902432527 -0.4316086732
H 0.0702425497 -0.1732410698 -1.3900959162
C 0.6302122517 0.3554696015 0.5833110276
O -0.1654070483 0.8755188544 1.3397578223
O 1.9053928687 0.629162672 0.5253506971
C 2.4358862441 1.6138996913 1.441493961
C 2.8229266244 0.9623531734 2.7584492458
S -1.4020374983 -1.3522201742 0.0940194284
P -2.4974978306 0.4697712294 0.1396312614
S -1.8693398348 1.9255820008 -1.0107066046
O -3.9483470434 -0.0694515736 -0.3018573292
C -4.207404573 -0.5113798507 -1.6362598382
O -2.8407797259 0.8856722044 1.6226330414
C -3.3977515757 -0.0431829932 2.5736882942
H 6.2409406139 0.3135685053 -1.1848742083
H 4.5497375946 0.8187981499 -1.073409268
H 5.3320008791 0.0319468685 0.3085789144
H 5.5311793923 -2.0828359311 -1.0164051594
H 4.7352232829 -1.2634976246 -2.3998987076
H 1.5250312393 -2.2318495639 0.3609697557
H 0.8070850453 -2.587232989 -1.2237126208
H 3.3036783199 2.0240415001 0.9250981465
H 1.6811107815 2.3907044119 1.591168188
H 3.2977311629 1.7016701009 3.3947529996
H 1.9381867788 0.579653637 3.2619910737
H 3.5139950288 0.142626779 2.581673466
H -3.7345265053 -1.4788946808 -1.8049225141
H -3.8286989707 0.2193635943 -2.3531513176
H -5.2884412402 -0.5934309813 -1.7138625881
H -3.4287446303 0.5024127194 3.5131639219
H -2.7551523795 -0.9197565157 2.658266576
H -4.3971659426 -0.3390331559 2.259716779
*
