! pbe def2-sv(p) def2/J RI DEFGRID1 loosescf d4 GCP(DFT/SV(P)) printgap
%output
    printlevel normal
end
* xyz 0 1
C 3.5202443989 -3.0047596399 0.4258806085
C 2.9810132614 -1.6614351352 0.8891903992
O 2.7420476733 -0.7861717429 -0.2304249172
C 1.6216226913 -0.9097961067 -0.9085500731
O 0.734821893 -1.6988629214 -0.644036597
C 1.5477800396 0.0746114643 -2.0570363638
C 0.3121509152 0.9688991965 -1.9150385104
H 0.2384959805 1.6288920811 -2.7833267914
C 0.3602327167 1.8119363107 -0.6552902111
O -0.5760467871 1.8571128665 0.1241953672
O 1.4831957486 2.4518639613 -0.5228596535
C 1.7147174736 3.2208399815 0.6801402877
C 2.3295297214 2.339888264 1.7546333713
S -1.2573176917 0.0341517269 -1.8937254312
P -1.5850041363 -0.3782961503 0.1611993241
S -0.455739842 -0.4674324715 1.7803489605
O -2.9683314529 0.3750500205 0.4833485061
C -3.1199644387 1.5224442172 1.3143910971
O -2.1910407553 -1.8130504364 -0.2171154806
C -2.7047245197 -2.7060714751 0.771002054
H 3.7574315978 -3.6111936655 1.2935699518
H 2.7723339587 -3.522436347 -0.170856363
H 4.4169313589 -2.8624401159 -0.1710297765
H 3.7103209563 -1.126918232 1.4975110533
H 2.0472291962 -1.7817903637 1.4463839738
H 1.4581670112 -0.4903070214 -2.9853752687
H 2.4495468763 0.6859219845 -2.0655723659
H 2.4007053773 4.0070584171 0.3657447557
H 0.7659299832 3.6453911355 1.0165298668
H 1.6378373527 1.5475706986 2.0388021433
H 3.2468648186 1.8879652018 1.3877602657
H 2.5489521788 2.9410621014 2.6303526325
H -3.0004169357 2.424892089 0.7178669002
H -2.3745709811 1.5079722769 2.1116748614
H -4.1240385192 1.4602923334 1.7278487023
H -2.7786108352 -3.6745193702 0.2826889027
H -3.6846853815 -2.366162227 1.1071158487
H -2.0208774332 -2.7611265708 1.621282108
*
