! pbe def2-sv(p) def2/J RI DEFGRID1 loosescf d4 GCP(DFT/SV(P)) printgap
%output
    printlevel normal
end
* xyz 0 1
C 4.2288591499 -2.0772469099 0.1918792078
C 4.7039237351 -0.6526462337 0.3877512161
O 3.6143339571 0.2590083808 0.6284519955
P 2.5178531278 0.584704962 -0.4718348234
S 3.1471677061 0.7705930378 -2.3110890242
O 1.8594779593 1.9140701306 0.058303023
C 1.4402149269 2.0946325207 1.4342663653
C 2.4781306779 2.8820554294 2.2051413909
S 1.0161305093 -0.9036431103 -0.1684544888
C 0.099955718 -0.4752054933 -1.6854591756
S -1.4626726023 -1.3698655233 -1.7809089701
P -2.4398477649 -0.3571844698 -0.1933034797
S -1.8978737795 1.4966284555 0.1610002239
O -2.3733336979 -1.3242715799 1.0645043153
C -1.4846187587 -1.1819063352 2.1872940148
C -2.2208266349 -1.6269147138 3.4356237627
O -3.908513661 -0.5848485324 -0.7261569503
C -5.0304532337 0.2031413098 -0.2719658108
C -5.2930721889 0.0306393624 1.209390725
H 3.5858285323 -2.3797342132 1.0145332892
H 3.6704672162 -2.1594483626 -0.7394015295
H 5.0888086142 -2.7375224083 0.1437798197
H 5.2541229873 -0.3055700752 -0.4918253301
H 5.3249484527 -0.5540292265 1.2791487263
H 0.4919000711 2.6325477633 1.365315427
H 1.2719955651 1.1117526369 1.883332051
H 2.6654504491 3.8310586411 1.710495121
H 2.1079317546 3.0674443178 3.2084184646
H 3.4088713702 2.3238284458 2.2605765146
H 0.6919199568 -0.7608374172 -2.5532914617
H -0.0921563905 0.600227774 -1.6818389787
H -0.6071677277 -1.8055480248 1.9977807171
H -1.1735803628 -0.1337541203 2.2572708574
H -2.5756254197 -2.6456089723 3.3104295644
H -1.5413038075 -1.5846939567 4.2803945388
H -3.0710968642 -0.9785844403 3.6279154926
H -4.8321724363 1.2530679171 -0.5095678828
H -5.8615028417 -0.1619849711 -0.8769051037
H -4.4714464761 0.45966578 1.7817876052
H -6.2120837594 0.5448630841 1.4732492855
H -5.3840204453 -1.0245463491 1.4536176393
*
