! pbe def2-sv(p) def2/J RI DEFGRID1 loosescf d4 GCP(DFT/SV(P)) printgap
%output
    printlevel normal
end
* xyz 0 1
C 2.9668092929 0.6630634876 -2.4289863541
C 2.1715486928 -0.6171031287 -2.2869191953
O 1.351188548 -0.6265176541 -1.0985345568
P 1.8901661824 -0.4461538739 0.374862057
S 2.4435307518 1.3152137766 1.0518894885
O 3.0516051286 -1.5327509959 0.4017472273
C 3.9810518535 -1.6441822298 1.4973491153
C 5.2937657227 -2.1729721498 0.9545740579
S 0.3512088892 -1.3537493099 1.4906397644
C -0.5008910392 0.116631143 2.1525083105
S -2.2204207431 0.2260923661 1.6236212419
P -1.8837160276 0.608998145 -0.4457582198
S -0.5286684605 1.9510538286 -0.8803084533
O -3.3590545937 0.8531813106 -0.9820488674
C -4.3230929667 1.7440368952 -0.3886205691
C -3.7970758305 3.153419495 -0.2188633411
O -1.5146503401 -0.7669092998 -1.1189894865
C -2.327001075 -1.962486705 -1.0023458095
C -3.1699004357 -2.1559785155 -2.2457911878
H 3.4860565977 0.6654093599 -3.3820743668
H 2.3012370852 1.5234520308 -2.3775023011
H 3.6956221628 0.7455193107 -1.6232805576
H 2.8282388267 -1.4894042288 -2.2522726238
H 1.4433757262 -0.7244338086 -3.0929279738
H 4.1046130561 -0.6553171025 1.952246424
H 3.5479887559 -2.3276370321 2.2315417071
H 5.7125105234 -1.4739698571 0.2355863583
H 5.9911009101 -2.2990040336 1.7761216521
H 5.135486305 -3.1302806686 0.4663305947
H 0.0494350758 1.0079900928 1.8359619712
H -0.5236406201 0.0345099931 3.2361120285
H -5.1622328078 1.7143794943 -1.0859130586
H -4.6236716169 1.325067657 0.5755311656
H -4.5906382199 3.7922010202 0.1550527508
H -2.9695349846 3.1641349433 0.4892841649
H -3.4374185123 3.5421881035 -1.1687659597
H -1.6056979272 -2.7723382647 -0.8738699753
H -2.9511667101 -1.8841208793 -0.1075476981
H -3.7318208725 -3.0799223697 -2.15181127
H -3.8596739943 -1.3246910578 -2.3650576277
H -2.5332523327 -2.210030902 -3.1244620018
*
