! pbe def2-sv(p) def2/J RI DEFGRID1 loosescf d4 GCP(DFT/SV(P)) printgap
%output
    printlevel normal
end
* xyz 0 1
C 1.6909266227 -3.0238665601 -1.1976987138
C 2.0042869354 -1.7093744035 -1.8854195545
O 2.8831033485 -0.892328645 -1.0899796989
P 2.3839149408 0.2120353465 -0.0600632773
S 1.0955123571 1.5093276261 -0.7811134196
O 3.7354475911 0.9150949051 0.3295362581
C 5.0159784212 0.2463295936 0.4646719595
C 5.012388393 -0.797790809 1.5600050073
S 1.73659098 -0.8333161472 1.6834853697
C 0.0030451063 -0.3510762218 1.7491620207
S -0.9782893253 -0.9918254977 0.3511114153
P -2.2222919869 0.691871923 -0.0363754701
S -2.0438688846 2.1864533669 1.2170094352
O -3.681491843 0.051978996 -0.0479813452
C -4.3121039196 -0.3967644038 1.1657667201
C -5.7962871744 -0.5406557691 0.8953665073
O -2.0741480344 1.1424333077 -1.5315132833
C -1.7795436532 0.3210515559 -2.6865268948
C -2.601472843 -0.9470193854 -2.7474269271
H 1.1446333938 -3.658973871 -1.8871614124
H 2.612339383 -3.5200898057 -0.9068769772
H 1.0788587001 -2.8615955459 -0.3134657485
H 1.0908775961 -1.1453195605 -2.0977263238
H 2.5547819617 -1.8696049741 -2.814376273
H 5.2699935543 -0.1961491103 -0.4999351092
H 5.6991637959 1.0664655761 0.690268274
H 4.7042219524 -0.3581237581 2.5050288927
H 4.3257261755 -1.6051670966 1.3116363003
H 6.0136968216 -1.2040645873 1.6641381129
H -0.0915680372 0.737777139 1.7538224294
H -0.382215478 -0.7794661498 2.6715048648
H -3.8641673337 -1.353842793 1.448247507
H -4.1176864317 0.3393824094 1.9537083212
H -5.9607664479 -1.2587777332 0.0976047096
H -6.2910703237 -0.8841339465 1.7977651885
H -6.2145802347 0.417310982 0.5993117416
H -1.9971989672 0.9870769627 -3.523125388
H -0.7071151639 0.1076316228 -2.6675002705
H -2.3629385815 -1.5952759018 -1.9051447923
H -3.6609182923 -0.706265853 -2.7195016561
H -2.373381141 -1.4694333277 -3.6713901879
*
