! pbe def2-sv(p) def2/J RI DEFGRID1 loosescf d4 GCP(DFT/SV(P)) printgap
%output
    printlevel normal
end
* xyz 0 1
C 3.752605902 1.4328361045 -2.0370623362
C 2.7321234137 0.316054784 -2.1402634742
O 2.8252525957 -0.5625452949 -1.0002788024
P 1.9249794897 -0.4612211996 0.3016077631
S 1.5189006918 1.3555069821 0.9266233456
O 2.7161930525 -1.343983332 1.3509870432
C 3.6704696732 -0.7780118664 2.2724187758
C 4.9352655518 -0.3390581835 1.5657112531
S 0.4180949939 -1.8852518417 -0.1410381218
C -0.5354966948 -1.8336568708 1.398925689
S -1.3963482799 -0.2555893131 1.7108836544
P -2.0882054118 0.2069776938 -0.231567265
S -0.9202420425 0.872867108 -1.6703135358
O -3.2849747641 1.2056842611 0.0796672178
C -3.1048960371 2.6300107175 0.1391842439
C -2.2534787883 3.0423443678 1.322744258
O -2.829636885 -1.1558803319 -0.5356241095
C -3.1836104684 -1.5644117203 -1.8734388193
C -4.308836401 -0.7207774204 -2.4341309239
H 4.7504168368 1.0193388721 -1.9182160463
H 3.714836677 2.0307702746 -2.9418069492
H 3.5244195846 2.0702246205 -1.1851720314
H 2.9289508995 -0.3276696998 -2.9993136501
H 1.7190777541 0.7201971109 -2.2155738085
H 3.1995860159 0.068452947 2.7829599078
H 3.860382712 -1.5849082484 2.9814196208
H 5.6659575443 -0.0162784592 2.3006689102
H 5.3434443944 -1.1604314265 0.9826996465
H 4.7133370025 0.4914300389 0.8974001601
H 0.123796141 -1.9938910435 2.2496913255
H -1.2730453788 -2.628868401 1.3172352008
H -2.6450374122 2.9618778578 -0.7978027981
H -4.1204245486 3.0205057566 0.2153999674
H -2.2225475717 4.1251034049 1.3883265586
H -2.661555228 2.6336835955 2.2438887004
H -1.2343859568 2.6720474484 1.199878823
H -2.2917079569 -1.4942276639 -2.5045181787
H -3.47565109 -2.6088412392 -1.7585585946
H -4.6136265092 -1.1194282815 -3.3965887408
H -5.155824105 -0.724684457 -1.7532095732
H -3.9695214596 0.3058162292 -2.566992357
*
