! pbe def2-sv(p) def2/J RI DEFGRID1 loosescf d4 GCP(DFT/SV(P)) printgap
%output
    printlevel normal
end
* xyz 0 1
C 0.6450242616 1.6941090082 -0.0963067262
C 1.4321995752 0.3820106836 -0.2723307837
H 1.6758138061 0.2224231897 -1.3297949474
C 0.5773421931 -0.8087090299 0.1810929886
H 0.4788153943 -0.7697668153 1.2778190166
C -0.8116341061 -0.7501128815 -0.4830534927
H -0.6808929493 -0.9202087501 -1.5575147297
C -1.4732878415 0.6264609584 -0.2701994647
H -2.3718351884 0.7038569655 -0.8928973325
O -0.6409447276 1.6658455179 -0.6976240196
O -1.9260869747 0.7605024572 1.0447200415
O -1.637446399 -1.7805034813 -0.0020287397
O 1.24077147 -1.9947469619 -0.1847242536
O 2.5929124674 0.411540063 0.523991796
H 1.1583161703 2.5197987929 -0.5895811191
H 0.5786928164 1.9159617382 0.9770914452
H -1.1820957308 0.886326748 1.6529081698
H -2.1105084645 -1.4583705171 0.7835098881
H 0.6351094695 -2.7383781851 -0.0414376037
H 3.2995739335 0.8880342336 0.0681181898
*
