! pbe def2-sv(p) def2/J RI DEFGRID1 loosescf d4 GCP(DFT/SV(P)) printgap
%output
    printlevel normal
end
* xyz 0 1
C 2.3287238643 -1.2687505634 3.1970111374
C 1.7171082493 0.0515867746 2.7773740349
O 1.2588539016 0.0388805597 1.4086213215
P 2.1697943475 -0.2032305183 0.1359509873
S 2.7782065715 -2.0282384461 -0.2654676597
O 3.3394534981 0.8447295525 0.3805644682
C 4.572441458 0.8006101634 -0.3592601482
C 4.3809074273 1.2224787669 -1.8012695611
S 0.9195923704 0.6696841798 -1.332777267
C 0.008251223 -0.8386248694 -1.7562129462
S -0.9286132217 -1.5137060811 -0.3614433351
P -2.2068712999 0.1606786488 -0.1048316245
S -2.7763718481 1.0703594336 -1.749410644
O -1.4292775149 1.0784969763 0.9251754281
C -1.3420217646 2.5085173918 0.7990699224
C -2.5704416591 3.1696016673 1.38888831
O -3.3326711197 -0.3954161905 0.8645287784
C -4.0804571516 -1.6102565967 0.6727280427
C -4.7414443832 -1.6873099794 -0.6881576593
H 1.6323183115 -2.083418525 3.0107456377
H 3.2402535787 -1.4594530997 2.6321740378
H 2.56788467 -1.2346689611 4.2553354158
H 2.4324039734 0.8695522226 2.8911983563
H 0.8082178404 0.2680412819 3.3423267093
H 5.2271767208 1.486834625 0.1794229259
H 4.97107051 -0.2176468048 -0.306227747
H 5.348263681 1.2862297679 -2.2889211562
H 3.7689974329 0.4893603112 -2.3250547658
H 3.8856205857 2.1888660523 -1.8507449316
H 0.7062934237 -1.6167540248 -2.0637000356
H -0.6734318173 -0.5683826193 -2.5623295743
H -0.4322598747 2.7755130463 1.3391313653
H -1.2297443046 2.7687583532 -0.2591150119
H -2.4640488349 4.2481123576 1.3315974366
H -3.4517509149 2.8670624857 0.8248153558
H -2.6980586439 2.8694693027 2.4252232479
H -3.4024181128 -2.4555220806 0.8220996749
H -4.8204088767 -1.583673289 1.4748327869
H -5.3642309661 -2.5747927894 -0.7361082919
H -5.3548809584 -0.8064463382 -0.8623723527
H -3.9857379472 -1.7419039685 -1.4706291449
*
