  13
        -23.54470050
 C         -1.9358799284       -1.2040306736       -0.0000383508
 C         -0.5560484156       -1.2071711967        0.0003118893
 C          0.1213103750        0.0000088132        0.0006119528
 C         -0.5553855581        1.2053159654        0.0003370034
 C         -1.9380933626        1.2036930110       -0.0000295980
 C         -2.6394030061        0.0006105646       -0.0000883338
 O         -3.9889036284       -0.0558113994       -0.0002519997
 Br         2.0446835673        0.0007436013       -0.0001152368
 H         -2.4897782972       -2.1284762543       -0.0001947314
 H         -0.0123362040       -2.1383529555        0.0003938774
 H         -0.0111727926        2.1363869901        0.0001765011
 H         -2.4676073279        2.1440410462       -0.0002361962
 H         -4.3795666031        0.8321174444       -0.0001661777
