! r2scan-3c def2/J RI DEFGRID2 scfconv6 printgap
%output
    printlevel normal
end
%cpcm
    smd true
    smdsolvent "water"
end
* xyz 0 1
C 5.0170583723 -0.6391621994 0.5206009327
C 4.5455308967 -1.7292060294 -0.428161686
O 3.1082643336 -1.8312518515 -0.4129987668
C 2.4164564975 -1.0597307816 -1.22376257
O 2.8979122269 -0.2862425523 -2.0229293115
C 0.9244206693 -1.2879973334 -1.0625351021
C 0.188067447 0.0229744337 -1.2972776269
H 0.5445529799 0.4674293161 -2.2348455482
C 0.4143212176 1.0517678772 -0.2062427374
O -0.4050347961 1.9111900527 0.0537860043
O 1.5815346368 0.9197504338 0.3664666089
C 1.9356617391 1.8524362596 1.4083289016
C 2.4955169074 3.1392678425 0.8264636923
S -1.6043137406 -0.1841275549 -1.5227559865
P -2.2663966729 -0.0923080651 0.4953570016
S -1.018726691 -0.6556654662 1.8942128716
O -2.9471981677 1.2966375597 0.8033088969
C -3.8333431278 1.9565386843 -0.1216159984
O -3.5772920218 -1.0112423921 0.4057612946
C -3.4850400944 -2.4264779947 0.2090807579
H 4.6485383587 -0.834488844 1.5239402329
H 6.101669362 -0.6159445695 0.5336981747
H 4.6443543178 0.3266408413 0.1877746552
H 4.8932831226 -2.7122888984 -0.1107832465
H 4.8695903438 -1.5195997504 -1.4515770571
H 0.7286374202 -1.6903181286 -0.067794605
H 0.6082433029 -2.0154785617 -1.8128910629
H 1.0435797875 2.0463372524 2.0112679958
H 2.6795004994 1.3189207645 2.000018873
H 2.8395573845 3.7754906076 1.6349363217
H 3.3272994962 2.9191352545 0.1621396568
H 1.7253684406 3.663969627 0.2656852591
H -4.6102967667 1.2701182071 -0.4533385062
H -3.2593130182 2.3246974765 -0.9716021531
H -4.2586163157 2.7849155079 0.4387555232
H -3.1897776667 -2.638638847 -0.8180724463
H -4.4799886534 -2.8145537866 0.4112375434
H -2.7610271993 -2.8542224384 0.9042506317
*
