! pbe def2-sv(p) def2/J RI DEFGRID1 loosescf d4 GCP(DFT/SV(P)) printgap
%output
    printlevel normal
end
* xyz 0 1
C 5.1094517075 0.5463238005 0.3858746828
C 3.9814839861 1.1485513434 -0.4239413055
O 3.0024098329 0.1535186935 -0.7969753917
P 2.0746816026 -0.5403456602 0.2794691998
S 1.5929654841 0.5525187437 1.8378648112
O 2.8656137271 -1.8676778769 0.6423251113
C 2.5977471763 -2.6609677618 1.814770067
C 3.9045232489 -3.2665092175 2.2881049021
S 0.5561412942 -1.2809864451 -1.0076866647
C 0.1023002806 0.2719454694 -1.8329941421
S -0.6658676711 1.4846526944 -0.7374396014
P -2.544919616 0.4839646948 -0.5793851091
S -3.1891268896 -0.3431510912 -2.22917652
O -3.4569727375 1.5599255924 0.1507437312
C -3.6062799995 2.9365053676 -0.2472152646
C -4.0096062347 3.0864352446 -1.6988409606
O -2.4113607439 -0.6215481433 0.5333099472
C -1.9994258403 -0.3611503742 1.8982034755
C -1.4551409179 -1.6546613666 2.4664738991
H 5.873070492 1.2988883056 0.555725415
H 4.7296222021 0.2043482607 1.3477116229
H 5.5424302398 -0.2984728113 -0.1432680499
H 4.3317654456 1.5414303905 -1.3792523775
H 3.4755427785 1.9370254193 0.1424029432
H 2.1566580017 -2.0161587885 2.5829623924
H 1.8802960732 -3.4367567877 1.535511794
H 4.352995391 -3.8497959776 1.4891951292
H 4.5975467936 -2.4844067778 2.5854171695
H 3.70862045 -3.9117520173 3.1381481455
H -0.6129866625 -0.0039692264 -2.6105914236
H 0.991310839 0.7327602612 -2.2551147866
H -4.3794116506 3.3136659472 0.4244945702
H -2.6610052189 3.450545118 -0.0514906423
H -4.9142280994 2.5181050477 -1.9017084915
H -4.1854951901 4.134719792 -1.9175263875
H -3.2186392175 2.714919635 -2.3489560856
H -1.2353234532 0.4229257566 1.9010395201
H -2.873889358 -0.0123293017 2.4495884172
H -1.1393346723 -1.4868266275 3.4910371481
H -2.2174590447 -2.4272909754 2.4368556271
H -0.6002965192 -1.9860586056 1.8795487877
*
