  30
        -33.55218558
 C          5.7630377935        0.3098505238        0.0001286883
 C          4.4856346645       -0.5215740347        0.0049680700
 C          3.2355320774        0.3555010681       -0.0004811456
 C          1.9520025803       -0.4714466946        0.0041664516
 C          0.7025932255        0.4064866549       -0.0030324327
 C         -0.5800900581       -0.4219761968        0.0002422004
 C         -1.8292796938        0.4565499148       -0.0082138356
 C         -3.1094598913       -0.3745378238       -0.0015222011
 C         -4.3558267072        0.5103847989       -0.0219945958
 O         -5.5587156373       -0.2248564259        0.0667243110
 H          5.8035675058        0.9501141878        0.8784864518
 H          6.6389922952       -0.3341474394        0.0031440687
 H          5.8028552491        0.9409641332       -0.8848688923
 H          4.4722907108       -1.1613490568        0.8902698816
 H          4.4725856121       -1.1719100636       -0.8726167395
 H          3.2486834161        1.0062806597        0.8770375785
 H          3.2491416155        0.9957310734       -0.8857380409
 H          1.9384434943       -1.1109632617        0.8898880202
 H          1.9402212184       -1.1232063273       -0.8726366172
 H          0.7140418378        1.0573037607        0.8742544955
 H          0.7168105274        1.0465794152       -0.8881937845
 H         -0.5943777609       -1.0605989768        0.8861836609
 H         -0.5897664482       -1.0733262134       -0.8765595257
 H         -1.8183980479        1.1097074473        0.8668646962
 H         -1.8176537360        1.0937160510       -0.8954428598
 H         -3.1190443127       -1.0324431810       -0.8740398123
 H         -3.1400905702       -1.0013388671        0.8920830005
 H         -4.3601046430        1.1730716863        0.8470108576
 H         -4.3591216530        1.1329335776       -0.9276587889
 H         -5.6089567619       -0.8378848004       -0.6799234577
