! pbe def2-sv(p) def2/J RI DEFGRID1 loosescf d4 GCP(DFT/SV(P)) printgap
%output
    printlevel normal
end
* xyz 0 1
C 4.7810108054 0.0072265067 -1.3964582462
C 4.5942190058 0.037591065 0.1070495081
O 3.314584525 -0.4757407653 0.498174685
P 1.9516789924 0.2958308553 0.1570056557
S 2.1348278502 2.233848673 0.409045375
O 0.9418550723 -0.462913569 1.1118016443
C 0.9143647436 -0.1732934955 2.5259754606
C 1.7283923567 -1.1878430326 3.3021754492
S 1.3773634233 -0.426628422 -1.7476731229
C 0.161734184 -1.7340201621 -1.3846903099
S -1.520050565 -1.3256531181 -1.946057334
P -2.1713041686 -0.0151536934 -0.4314991868
S -3.9969412601 0.6551492958 -0.6462249561
O -1.0086886181 1.0769728606 -0.4397118689
C -1.3104321734 2.4588742635 -0.1527912613
C -1.5476039654 2.6829625897 1.3244748861
O -1.8932134969 -0.7564655823 0.9559123018
C -2.8927479952 -1.5910548247 1.5683140847
C -3.059605822 -2.9108845151 0.8419409013
H 5.7838878519 0.3407885619 -1.6427155308
H 4.6288662031 -0.9985334747 -1.778860174
H 4.059746481 0.6731439184 -1.8719129868
H 4.6859313561 1.0618459398 0.4840025008
H 5.3098178047 -0.6103329448 0.615084896
H 1.2912947646 0.8430549091 2.6860048327
H -0.1430082042 -0.2144828447 2.7952685781
H 1.6464637941 -0.968651963 4.3622666109
H 1.3573552492 -2.1912253436 3.1132789595
H 2.7731742935 -1.1382006064 3.0064211989
H 0.1577953279 -1.9394110592 -0.3197624683
H 0.4518709286 -2.6031686798 -1.9689578805
H -0.4345530329 3.0056232827 -0.5059574701
H -2.1909130964 2.7481201785 -0.734635249
H -1.7614023446 3.7333244542 1.4944213689
H -2.3963122233 2.0865444863 1.6570247321
H -0.6643175381 2.4024069369 1.8924710447
H -2.5320549828 -1.7360306673 2.5879206484
H -3.8389570786 -1.0405508346 1.5836700942
H -3.7616955521 -3.5313423273 1.3897972151
H -3.4496589411 -2.7387510503 -0.1603879492
H -2.1076699137 -3.42979011 0.7654414562
*
