! pbe def2-sv(p) def2/J RI DEFGRID1 loosescf d4 GCP(DFT/SV(P)) printgap
%output
    printlevel normal
end
* xyz 0 1
C 0.445401409 -1.645041674 2.794713645
C 1.5728926595 -0.6393707104 2.6726911516
O 1.3911928672 0.1830887453 1.4963047585
P 2.2460016042 0.0163790762 0.1783677615
S 2.9615401574 -1.7736215679 -0.1910671334
O 3.3225350729 1.1675334744 0.4000604899
C 4.3717799664 1.4395611431 -0.5523842234
C 5.6491677552 0.7174279106 -0.1697163773
S 0.9852441027 0.8581460966 -1.2917474086
C 0.2312113507 -0.6871309975 -1.8743667232
S -0.7300268039 -1.532231727 -0.5944121983
P -2.1113373042 0.0329162963 -0.2333570496
S -2.6644059387 1.0532595609 -1.8181314689
O -1.4175620468 0.8632843608 0.9193830972
C -1.5068065423 2.2964360723 1.0085541337
C -2.8473367385 2.7176427473 1.5726119957
O -3.2379922495 -0.6999888161 0.6108153964
C -4.0928301429 -1.7272544391 0.0702321195
C -5.3294650976 -1.1339706913 -0.5769108277
H -0.5143502371 -1.1379865868 2.7266743231
H 0.5076163541 -2.3810959918 1.9957631245
H 0.5202716278 -2.1511841819 3.7517506116
H 2.5412409906 -1.1443488929 2.6134502247
H 1.5743750026 0.0638201851 3.5070099681
H 4.0379416937 1.1457342169 -1.5516330775
H 4.5005874944 2.5229181676 -0.517191933
H 5.5000306106 -0.3593211876 -0.2089339135
H 6.4360446848 0.9912752956 -0.8650090236
H 5.9461795898 0.9941392252 0.8379413042
H 1.0100640755 -1.3829970318 -2.1844667423
H -0.4182902244 -0.4138976286 -2.7054065715
H -0.6775827357 2.5762529931 1.6601620235
H -1.3510128682 2.7242111479 0.0121321815
H -2.8698202126 3.7966909723 1.6870640577
H -3.6400471202 2.4150388929 0.8892602364
H -3.0153143615 2.244853417 2.5363774997
H -3.5235709235 -2.3292522911 -0.6440860971
H -4.3532115506 -2.3405890613 0.9349512139
H -5.0526693224 -0.5116488414 -1.4249739864
H -5.9716721551 -1.9374986534 -0.9227309246
H -5.8716029052 -0.5246729353 0.1409170959
*
