! wb97x-v def2-tzvp def2/J RIJCOSX DEFGRID2 scfconv7 GCP(DFT/TZ) printgap
%output
    printlevel normal
end
%cpcm
    smd true
    smdsolvent "water"
end
* xyz 0 1
C -3.0850990881435187 -0.39274934276296164 -0.0001345468261219073
C -1.6229830963033347 -0.04207660306928664 0.00012958254317443668
C -1.1889459099137698 1.2828546698800882 9.385718828278862e-05
C 0.1735521397692287 1.5806075943794518 -2.9398057460067522e-05
C 1.1405689446425817 0.5753040774159957 -7.894977138756261e-05
C 0.7144573407824647 -0.7688802533697231 -3.8808825840957365e-05
C -0.651839526481267 -1.049988637426159 7.791918119580762e-05
C 1.7194989348349698 -1.885079797951641 1.9851594199086063e-05
C 2.603624923960284 0.9150503114071328 2.5375644567745136e-05
H -3.3487903646227357 -0.9857142443223735 -0.8829707852657438
H -3.3472426992064883 -0.9936711085530234 0.8777258173350979
H -3.7074762150818668 0.5057774647520369 0.004321638720511118
H -1.9177847995953086 2.0890834890542824 0.00018878296313629565
H 0.4931795684006583 2.61983713212885 -2.0747583584632492e-05
H -0.9727329372025142 -2.0900014382875183 0.00015471591843985684
H 2.372945215636678 -1.8330188564124827 0.8788599884032948
H 1.223818568338558 -2.858798316899668 -0.00015704724677397333
H 2.3732476348513307 -1.8328520332907545 -0.8785805462027685
H 2.752489494003372 1.9975946286281803 -0.0006995188028316752
H 3.1108453332356705 0.5008963882582803 0.8794771953715043
H 3.1113291264380845 0.49961528688369167 -0.8785284744805203
*
