! pbe def2-sv(p) def2/J RI DEFGRID1 loosescf d4 GCP(DFT/SV(P)) printgap
%output
    printlevel normal
end
* xyz 0 1
C 4.2504964151 1.2605501476 -2.4171579931
C 4.4777085781 0.6941122467 -1.0300636231
O 3.5096051517 1.2405865675 -0.0996133478
P 2.2995208235 0.4140677638 0.4987282898
S 1.3499765494 1.5209319529 1.7948841336
O 2.9325734209 -0.9360214413 1.0748746208
C 2.9264741632 -1.3029899134 2.4710976806
C 1.9527802822 -2.4356262182 2.7275645965
S 1.327759712 -0.3081268848 -1.2458015332
C 0.3885983933 -1.6818177999 -0.5237438637
S -0.8658305355 -1.1549007582 0.6694675522
P -2.1236745901 -0.1335162361 -0.7160058752
S -2.1516541897 -0.8922206604 -2.516125121
O -1.6965338679 1.3816033247 -0.7131706078
C -1.8004153218 2.2457035443 0.4452954542
C -3.0874906264 3.0408516564 0.4035712303
O -3.5140527826 -0.1131831156 0.0499050858
C -4.2861709684 -1.3226286923 0.2109542119
C -5.6864579208 -0.9265197627 0.6319443959
H 5.0258543359 0.8949409474 -3.0828332518
H 3.2789026739 0.9538699966 -2.7996940592
H 4.2855994481 2.3460136932 -2.3855128154
H 5.4471529969 0.9997590303 -0.632989762
H 4.4030844783 -0.3955489447 -1.0261795396
H 3.9527522901 -1.6036100124 2.6885838045
H 2.6652077089 -0.4230798938 3.067217031
H 2.1943530446 -3.293073381 2.1051724371
H 2.0212299801 -2.7258175036 3.7709653032
H 0.9330824767 -2.114249035 2.5197618924
H 1.0630557262 -2.3580764083 -0.0056330146
H -0.1029071276 -2.1712785729 -1.3655605583
H -1.7297397821 1.6408620073 1.3534846223
H -0.9241768041 2.8945033315 0.3850372325
H -3.9440468192 2.3753169536 0.4687927053
H -3.1011637824 3.7302191442 1.2418447541
H -3.1464288945 3.6015727577 -0.5253581131
H -4.2889066257 -1.8612764175 -0.7421930906
H -3.798918136 -1.939259444 0.9710503625
H -6.1457996217 -0.3067347246 -0.1330580755
H -6.2818875064 -1.8227837448 0.7707752207
H -5.6517031424 -0.370166941 1.5642377178
*
