! pbe def2-sv(p) def2/J RI DEFGRID1 loosescf d4 GCP(DFT/SV(P)) printgap
%output
    printlevel normal
end
* xyz 0 1
C 1.3180453909 -1.8803225692 2.2309487788
C 2.8091876539 -1.7481873649 2.0005264882
O 3.1541595327 -0.4995968404 1.3736356037
P 2.7857128622 -0.1612956433 -0.138595329
S 2.9499611523 -1.6391479483 -1.4065331699
O 3.7927140529 1.0099807474 -0.4490345011
C 3.9080111315 2.1804990467 0.4008683732
C 4.6067983196 3.2616168041 -0.3960520531
S 0.8818615128 0.8311395038 -0.0618774706
C -0.0248780582 -0.1612872102 -1.2732252823
S -1.2394337197 -1.2584339849 -0.5115196441
P -2.726162843 0.2447746209 -0.2124275123
S -2.9403979492 1.5198573429 -1.6815030174
O -2.343802741 1.0251817849 1.099162853
C -2.1225157191 0.3787610525 2.3798384235
C -1.1652135679 1.2425303749 3.174708595
O -3.9879979681 -0.5921728838 0.2694877271
C -4.520614201 -1.7562344266 -0.3901557833
C -4.8285668126 -1.5115057679 -1.8523262924
H 1.1244142285 -2.7740309955 2.8153022327
H 0.9419293849 -1.0116803617 2.7651292078
H 0.7984749416 -1.97017614 1.2773454256
H 3.1770333159 -2.5644284313 1.3712899084
H 3.3613619234 -1.7261106322 2.9412125842
H 2.9032142008 2.4908984824 0.7028644831
H 4.4803765565 1.8954273159 1.2853572236
H 4.017255544 3.5236231785 -1.2702630188
H 4.7323478311 4.1402223287 0.2283718002
H 5.5805417142 2.9098638888 -0.7246118094
H 0.6825386558 -0.7897462085 -1.8189982579
H -0.5506865221 0.524394862 -1.9398155136
H -3.091839287 0.2903008724 2.8733972696
H -1.7131203687 -0.6205971092 2.2036665691
H -0.9940435825 0.7872127825 4.1449567346
H -0.2218544707 1.3406845619 2.6430086413
H -1.5866558989 2.2340690561 3.3112329623
H -3.7995138572 -2.570558198 -0.2777917951
H -5.4260059637 -1.9796660145 0.1768018136
H -5.301338777 -2.392324877 -2.27464308
H -5.4925724718 -0.6573558577 -1.9629480131
H -3.9105253794 -1.3046109405 -2.4010206308
*
