  26
        -44.39825566
 C          2.9789154757       -0.2199150745        0.0707310751
 C          1.4835359873        0.0734596993        0.2408959933
 H          1.0913214965       -0.5436418548        1.0653562164
 C          0.7241887001       -0.3055332615       -1.0464566986
 H          1.2422134208        0.1399542777       -1.9046789336
 C         -0.7240285097        0.2343060309       -1.0641479956
 H         -1.2419673344       -0.2653865669       -1.8920160730
 C         -1.4837727257       -0.0606869868        0.2447520383
 H         -1.0906131963        0.6069207120        1.0284555141
 C         -2.9784354765        0.2245581445        0.0555138416
 O         -3.6971636494        0.0101481222        1.2493314836
 O         -1.2778456690       -1.4055219743        0.6280746114
 O         -0.7624729442        1.6073565281       -1.3536955903
 O          0.7633175515       -1.6942995525       -1.2471242295
 O          1.2757207930        1.4395111014        0.5384529238
 O          3.6977937567        0.0812350213        1.2455707887
 H          3.3850180228        0.4337666710       -0.7055117015
 H          3.1120839105       -1.2603715251       -0.2394037815
 H         -3.3873230161       -0.4813877518       -0.6720119418
 H         -3.1086027623        1.2408552617       -0.3276345067
 H         -3.5214164496        0.7326276969        1.8678936493
 H         -2.0311407846       -1.6757063830        1.1771983968
 H         -0.1508842293        2.0550883647       -0.7432816170
 H          0.1512079872       -2.1024542979       -0.6101627327
 H          2.0317184210        1.7460053287        1.0645954625
 H          3.5238973030       -0.5950322865        1.9150172504
