! pbe def2-sv(p) def2/J RI DEFGRID1 loosescf d4 GCP(DFT/SV(P)) printgap
%output
    printlevel normal
end
* xyz 0 1
C 3.2713960356 2.0887750361 -1.8816966801
C 2.0447618301 1.2121813942 -1.7454750339
O 1.5352818462 1.2615077196 -0.3893180664
P 1.8115194297 0.1314783884 0.6714995186
S 1.2465641224 0.6395467688 2.4722338613
O 3.3726214117 -0.1022713051 0.456632784
C 4.1295448199 -1.1352897607 1.1148115212
C 4.6218951885 -0.6885915744 2.4776952943
S 1.0264147072 -1.7139912964 -0.0700343289
C -0.3148269799 -2.0005352641 1.1139923383
S -1.9696861787 -1.9478227224 0.3740668351
P -1.9107637645 -0.0466019533 -0.5744589676
S -1.1706580524 0.0252029901 -2.3918801853
O -1.1773413245 0.8116272365 0.5415791035
C -1.577450613 2.150050466 0.9156374246
C -1.3197583582 3.1433063899 -0.1966513853
O -3.4068335605 0.4754450088 -0.4821219672
C -4.3737720576 0.1741318006 -1.5033022001
C -4.7854937972 -1.2827001224 -1.4699703805
H 4.0729964361 1.7149578179 -1.2503205381
H 3.594579028 2.0818025707 -2.9178406081
H 3.0362571502 3.1074060157 -1.5855331125
H 2.2612746372 0.1735245521 -2.0089422419
H 1.2216735129 1.5688793232 -2.3687152496
H 3.5130062242 -2.0353895631 1.1930571294
H 4.9640647362 -1.3261851751 0.4370292065
H 3.7829691414 -0.4988586097 3.1433093119
H 5.2438361764 -1.4689500746 2.9041887314
H 5.2039253799 0.2241962038 2.384823635
H -0.2354085309 -1.2581203875 1.9134749543
H -0.2076442619 -3.0110632365 1.5013730739
H -2.6323918282 2.1269450079 1.1933922225
H -0.9638699712 2.3593871462 1.7944985061
H -1.8952596628 2.8717259015 -1.0811406804
H -1.612958628 4.1353018739 0.1320150178
H -0.2633929429 3.1453980966 -0.4548603597
H -5.2096586496 0.8377136808 -1.2786333265
H -3.9417359236 0.4316407693 -2.4762142548
H -5.5732843954 -1.4520515076 -2.1967839725
H -3.9322289799 -1.9139647409 -1.7184366752
H -5.1404770197 -1.5540991384 -0.4792779984
*
