! pbe def2-sv(p) def2/J RI DEFGRID1 loosescf d4 GCP(DFT/SV(P)) printgap
%output
    printlevel normal
end
* xyz 0 1
C 4.7619961341 -4.3871318981 -0.9399882738
C 3.7783934889 -3.4486932383 -1.610512695
O 3.4198279222 -2.427043878 -0.6591079865
C 2.5411833343 -1.5212615864 -1.0307491002
O 2.013363206 -1.4883992001 -2.1208792095
C 2.2881539054 -0.5103939864 0.0723875884
C 0.8905620016 0.0734653278 -0.0636062142
H 0.701495626 0.3082590784 -1.1198121011
C 0.6578932792 1.335296171 0.7377273743
O -0.387851644 1.5238394249 1.3323856247
O 1.6557332622 2.1662684862 0.6929324503
C 1.4946087076 3.4669337659 1.3072219468
C 0.8193217254 4.4267257878 0.3421670712
S -0.3795249868 -1.1413096763 0.4616391742
P -2.0847675907 0.0707757439 0.1939063891
S -2.1220753253 1.5736054217 -1.0787298914
O -2.9342809085 -1.1807166051 -0.3474826506
C -4.3001784848 -1.0330411512 -0.7467369746
O -2.8687494589 0.3028739527 1.5657439901
C -2.9714376654 1.5303605067 2.288191825
H 5.0480824499 -5.1660768239 -1.6387081301
H 5.6468809945 -3.839506137 -0.63051948
H 4.3055744341 -4.8399828876 -0.0651364783
H 2.8647251987 -3.9655808157 -1.9197084702
H 4.2121051284 -2.9630891454 -2.4901582152
H 3.0203313406 0.2939407089 -0.0315805269
H 2.4250222408 -0.9964192409 1.0373237966
H 0.9064735452 3.3516071427 2.2206697315
H 2.5116332604 3.7809581679 1.5397517966
H 1.4097720398 4.5279939789 -0.5640324447
H -0.1689433259 4.0585361844 0.0714103762
H 0.715867 5.3982179843 0.8134442923
H -4.935919525 -0.921532663 0.130984936
H -4.5481620329 -1.9427639478 -1.2876523772
H -4.4084665516 -0.1622555498 -1.3971467996
H -3.95680215 1.5212370308 2.7490957529
H -2.8742441028 2.3763062338 1.606584099
H -2.189112245 1.5734629909 3.042432419
*
