! pbe def2-sv(p) def2/J RI DEFGRID1 loosescf d4 GCP(DFT/SV(P)) printgap
%output
    printlevel normal
end
* xyz 0 1
C 0.8480026818 1.3897366976 -0.6306712539
C 1.5951772455 0.1827186424 -0.047903025
H 2.5750719917 0.1043926104 -0.5421739937
C 0.7852919359 -1.1011256673 -0.3347610131
H 1.225090192 -1.9256316463 0.2438705781
C -0.6644808927 -0.9180241522 0.1443933967
H -1.2677916354 -1.7598289146 -0.2115214767
C -1.2614940816 0.3775497043 -0.448834496
H -1.3138250123 0.290120465 -1.5456309973
O -0.4571206729 1.4916484665 -0.1004059814
O -2.5397793857 0.60162628 0.0110014967
O -0.7728867813 -0.9041182134 1.5436294379
O 0.7501931518 -1.3915182531 -1.708719084
O 1.7537680279 0.2707358886 1.3495613549
H 0.8043202354 1.2848245145 -1.7228431266
H 1.3389376628 2.3274223432 -0.3674255798
H -2.5463426581 0.4683197443 0.9758616501
H -0.0545802429 -0.3490169998 1.899209878
H 1.588842336 -1.7890435194 -1.9854813428
H 2.222318935 1.0870585493 1.5767948833
*
