! pbe def2-sv(p) def2/J RI DEFGRID1 loosescf d4 GCP(DFT/SV(P)) printgap
%output
    printlevel normal
end
* xyz 0 1
C 3.7138128693 0.0271163779 2.2229744609
C 4.1544718463 -0.7131934088 0.9775974363
O 3.6356739582 -0.1250338009 -0.2382507663
P 2.1056883307 0.0454839185 -0.6252205168
S 1.9275042296 0.2482329352 -2.5609479645
O 1.5194821594 1.2447762219 0.2576139224
C 1.5207151886 2.59923288 -0.2155297888
C 2.9170691015 3.185092619 -0.2242249452
S 1.1891684476 -1.6178242192 0.2777738137
C -0.1714365155 -1.9386526286 -0.8954829196
S -1.7759564898 -1.9750887477 -0.0801225785
P -1.9826885183 0.1257708908 0.2041804463
S -1.4202889935 1.2350510367 -1.3125025137
O -1.1603558447 0.5411274519 1.479954954
C -1.0300576431 -0.186519599 2.7294306622
C -2.3516555208 -0.6206940677 3.3242689197
O -3.483967608 0.2949419231 0.6853494902
C -4.6339258793 -0.3064022428 0.0630750565
C -4.7480096911 0.023141023 -1.4104476932
H 2.6291786506 0.0006573148 2.3104321907
H 4.1512251122 -0.4530309016 3.0926392123
H 4.0394027132 1.0632901724 2.1841385693
H 3.8363181933 -1.7582582204 1.0142655418
H 5.2353013081 -0.6608051912 0.8372779852
H 1.0831740832 2.6201267927 -1.2196923932
H 0.8555667122 3.122632421 0.4734836993
H 3.3443424148 3.1617129095 0.7746555998
H 3.5503827762 2.6072856606 -0.8976762941
H 2.8726661348 4.2117263943 -0.573814853
H -0.0197650162 -2.9256539995 -1.3248026102
H -0.1581336955 -1.1641528936 -1.6685490302
H -0.3823871863 -1.0493883594 2.5481045306
H -0.5168479273 0.5291849847 3.373849261
H -3.0253945302 0.2277900817 3.4099648604
H -2.8174827716 -1.3843674184 2.7051540365
H -2.1677868215 -1.0339745565 4.3113889831
H -4.5758243872 -1.3880960882 0.212353438
H -5.4734490175 0.1028178026 0.6277000796
H -4.7402217213 1.1002187854 -1.5609442182
H -3.9095421567 -0.4034415564 -1.9593372624
H -5.6725787421 -0.3884894305 -1.8021277102
*
