! pbe def2-sv(p) def2/J RI DEFGRID1 loosescf d4 GCP(DFT/SV(P)) printgap
%output
    printlevel normal
end
* xyz 0 1
C 5.6312952954 1.0710476523 -1.2842146796
C 4.3807167058 1.406656611 -0.4970660354
O 3.3555722039 0.4569431342 -0.8561242189
P 2.1623212183 0.081876627 0.1253988119
S 2.7278566152 -0.2444745257 1.9772106921
O 1.491079623 -1.1224344607 -0.6459246813
C 1.9336235371 -2.4904253593 -0.4991696009
C 0.9348828259 -3.2724956929 0.3304722072
S 0.7552076369 1.6032275444 -0.1965566542
C -0.2241367575 1.3222522765 1.3117199594
S -0.9548935328 -0.3300733598 1.4042916899
P -2.1328269651 -0.3277142856 -0.367042072
S -1.3603069003 -0.609337146 -2.1411270807
O -2.9443119937 1.0385394071 -0.2086159886
C -3.1243962416 2.017333321 -1.2494875833
C -2.4164369221 3.3110823432 -0.8984575423
O -3.1390747412 -1.513545412 -0.0754709551
C -3.7706250799 -1.84431243 1.1841277914
C -4.6518007001 -0.7293584048 1.7053914782
H 5.4156127444 1.0939677743 -2.34861377
H 6.4007958084 1.8011150494 -1.0558493321
H 5.9876341488 0.0795004831 -1.0188995445
H 4.0119079894 2.4060108757 -0.7410464001
H 4.5563622635 1.3391018225 0.5821311098
H 1.9968846687 -2.8757326927 -1.518153474
H 2.9240592219 -2.5013254423 -0.0352407325
H -0.056295441 -3.1892961146 -0.1115529898
H 1.2294717484 -4.3164740475 0.3567291746
H 0.9007247073 -2.8821307879 1.3458756017
H -1.0055068317 2.0777532171 1.3254305944
H 0.4247989555 1.4036988153 2.1838933526
H -2.7491043323 1.6060634036 -2.1924908517
H -4.2034857022 2.1662073285 -1.321451141
H -2.7477761478 3.6705690421 0.0719080241
H -1.3375330497 3.1643887267 -0.8822084238
H -2.6551848979 4.0548812966 -1.6517080618
H -4.3507892604 -2.736701773 0.9429623355
H -2.9895396381 -2.0961215277 1.905659471
H -5.3847042589 -0.4468513388 0.954180081
H -5.1671574111 -1.0743297087 2.5964442581
H -4.050011258 0.1405109232 1.9573206154
*
