! pbe def2-sv(p) def2/J RI DEFGRID1 loosescf d4 GCP(DFT/SV(P)) printgap
%output
    printlevel normal
end
* xyz 0 1
C 5.3830556772 -0.6913274763 -1.3683498074
C 3.9879062135 -0.9748668106 -1.8836040776
O 3.0639061461 -1.2368623356 -0.8078734778
P 2.6047873415 -0.1007750371 0.2001832639
S 2.4488703476 1.7003849062 -0.5773914227
O 3.6668514913 -0.2198702445 1.3751972196
C 3.844609893 0.8171583535 2.3555902736
C 2.6108395647 0.9935081109 3.2166337372
S 0.9082016161 -1.0777521514 0.9905659612
C -0.0490510962 -1.2238899096 -0.5399456928
S -0.6957349 0.3697013241 -1.1602933421
P -2.7090669072 0.1488949904 -0.561710438
S -3.9048211081 1.6585809059 -0.9122686688
O -2.6763313492 -0.3505283198 0.9535957179
C -2.8169616829 0.5573748559 2.0571277262
C -1.5527351133 1.3577186475 2.2944668855
O -3.0334797467 -1.2041499321 -1.3293421429
C -4.3884731761 -1.5977280047 -1.6322348898
C -5.1670634468 -1.9582445702 -0.3846039383
H 5.7079575397 -1.4899357693 -0.7067368653
H 6.067845367 -0.6128341803 -2.2069518054
H 5.3888558794 0.2480110549 -0.8172054017
H 3.9556572468 -1.8845298213 -2.4850562748
H 3.6114185964 -0.1272890191 -2.4658887169
H 4.7037083402 0.4831902835 2.9385503632
H 4.0837009105 1.7495037471 1.8341112088
H 2.3125538864 0.0415280509 3.6488790667
H 2.8198075033 1.7034803177 4.010305151
H 1.7925443528 1.3774953034 2.6076050509
H -0.8836029335 -1.884984469 -0.3252303178
H 0.5879830418 -1.6335084888 -1.3192926576
H -3.6611780077 1.2241395653 1.8514191427
H -3.0467251979 -0.0881825573 2.9055875292
H -0.7143354767 0.6891023117 2.4737037965
H -1.3336854794 1.9761701784 1.4231383713
H -1.6902328108 2.0030027871 3.1560234847
H -4.875179294 -0.7754560342 -2.1659600458
H -4.267040548 -2.45309797 -2.2981603614
H -6.1406497956 -2.3446982563 -0.6694200213
H -4.6331901065 -2.7096384113 0.1910226147
H -5.3060054334 -1.0719219644 0.2327005312
*
