! r2scan-3c def2/J RI DEFGRID2 scfconv6 printgap
%output
    printlevel normal
end
* xyz 0 1
C 5.2825012283 -2.3703033966 -0.9001941605
C 4.2126124746 -1.3664386926 -1.2796341098
O 3.2287859945 -1.3491743441 -0.2260395487
P 2.2055812136 -0.1483981537 -0.0595635152
S 3.0006414036 1.648082981 -0.0964735588
O 1.4430635736 -0.5583579612 1.2646173999
C 1.8229052265 -0.0349798026 2.5559428123
C 3.1682456189 -0.5702556831 2.9966155487
S 0.7405103928 -0.5487935381 -1.5297022485
C -0.0464507468 1.0856478456 -1.4694056936
S -0.8792178501 1.4122447567 0.097505491
P -2.723325671 0.3846179321 -0.2808858783
S -3.0785172206 0.0380243824 -2.1749862997
O -3.867388558 1.2845297186 0.3143604095
C -4.1715352405 1.4665356827 1.719274926
C -3.0388560137 2.1242894401 2.4780256405
O -2.7449267431 -0.8414735999 0.7368073907
C -1.7973997463 -1.919849843 0.7923466095
C -1.9248428599 -2.8665283321 -0.3838866091
H 5.7742489 -2.0658600511 0.0192753316
H 4.8348062969 -3.3487768325 -0.7535115268
H 6.0168038637 -2.4260229963 -1.6970317094
H 3.7120232153 -1.648428844 -2.2099155256
H 4.6268811821 -0.3581805225 -1.387900881
H 1.8372033007 1.0578019731 2.4954923908
H 1.0190637964 -0.359583279 3.2175809832
H 3.9454230561 -0.2059255385 2.3256961278
H 3.3820935918 -0.2265764833 4.0037637249
H 3.1659988256 -1.6567201951 2.9745857947
H -0.7756269404 1.1108423415 -2.2804368822
H 0.7163356802 1.8547951138 -1.5870035551
H -5.0609148829 2.0981414133 1.6989149391
H -4.4164811287 0.4916324872 2.1442182049
H -3.3578728408 2.315038778 3.498002545
H -2.1654864676 1.4744407461 2.4959155625
H -2.7612900306 3.0641460669 2.0075757473
H -0.786040049 -1.5061170446 0.851146841
H -2.0388838275 -2.4235613406 1.7306360995
H -1.6506842169 -2.3657677722 -1.3105548662
H -1.2607148933 -3.7116923205 -0.234250917
H -2.9484713968 -3.2215267529 -0.4717560845
*
