! pbe def2-sv(p) def2/J RI DEFGRID1 loosescf d4 GCP(DFT/SV(P)) printgap
%output
    printlevel normal
end
* xyz 0 1
C 3.9015597987 -1.8914531296 -1.6449661787
C 4.3180413264 -0.5445521967 -1.0884060868
O 3.5585727525 -0.179663889 0.07261144
P 2.0267131345 0.2709420368 0.0534025722
S 1.4866486117 1.0508897599 -1.6640386671
O 1.9620475047 1.1749555486 1.3489833959
C 2.0956016432 2.6073664128 1.3050759367
C 3.4857572279 3.0353306932 0.8831602543
S 1.0132296507 -1.3644549661 0.9457625149
C 0.3301992125 -2.2773634904 -0.4669014904
S -0.9267448505 -1.3906582454 -1.4531764829
P -1.9377157464 -0.3046551998 0.0485099203
S -1.203641057 1.3805726904 0.7551958384
O -2.2162085433 -1.4530401849 1.0930860909
C -2.4736029179 -1.1810381563 2.4869066397
C -3.8370045672 -0.5535389709 2.6820743751
O -3.3607518605 -0.0966801503 -0.6264859669
C -3.616242616 0.9443016326 -1.5885588986
C -5.1160368744 1.1432911895 -1.67201914
H 4.6104546143 -2.2013980611 -2.4061536574
H 3.8761587883 -2.6350904839 -0.8520854738
H 2.9160315844 -1.8085129977 -2.102116325
H 4.195459882 0.2351509823 -1.8467680294
H 5.3481759775 -0.5586679495 -0.7300477001
H 1.3351968734 3.0035333433 0.6234694164
H 1.8627148207 2.9203442263 2.3239706863
H 3.6664394814 2.7395261454 -0.1498499007
H 3.5671731393 4.1149081188 0.9607582925
H 4.2304840213 2.5665021589 1.5211477234
H -0.1331297942 -3.1601894754 -0.0317218588
H 1.1152530498 -2.5556487441 -1.1662988273
H -2.4000872167 -2.1599857609 2.9615892353
H -1.6831305565 -0.5243780694 2.8651503656
H -4.0334804798 -0.4366250446 3.7431187889
H -3.8598907044 0.4264064829 2.2063982145
H -4.6048564217 -1.1790001301 2.2350104915
H -3.1049761887 1.8566852692 -1.2612485454
H -3.1991616955 0.631016747 -2.5499977393
H -5.50534415 1.4654014585 -0.710427288
H -5.3326274969 1.900152587 -2.4186416943
H -5.5956380497 0.2103100935 -1.9528805198
*
