! pbe def2-sv(p) def2/J RI DEFGRID1 loosescf d4 GCP(DFT/SV(P)) printgap
%output
    printlevel normal
end
* xyz 0 1
C 2.0522965022 2.2235016002 -0.6690004614
C 2.1668626945 0.941395159 -1.4686243397
O 2.8029530794 -0.1213208369 -0.7409781124
P 2.3295470408 -0.7513574377 0.6401194895
S 2.5643296782 0.3239561277 2.2669584993
O 3.1527553908 -2.1032551672 0.6330284
C 4.4314665721 -2.2255927949 1.2871026549
C 5.5098206855 -1.4656838512 0.5438964937
S 0.3941414035 -1.5429066459 0.2762635349
C -0.5103312012 -0.7149986517 1.6146317452
S -1.1225883581 0.937963857 1.1768259711
P -2.295159505 0.4534278247 -0.5232553577
S -1.4348780313 0.3005981719 -2.2840829339
O -3.4645936782 1.5295144099 -0.4861922752
C -3.3499421308 2.8035245228 -1.1406628027
C -2.3175037411 3.6859364484 -0.4693963376
O -3.0102124477 -0.8479909915 0.0237065967
C -3.5867253595 -1.8272948748 -0.8657864508
C -4.8219253436 -1.2930751492 -1.5593459816
H 3.025213744 2.5196255715 -0.2844013923
H 1.66694242 3.0075342944 -1.3134819123
H 1.3729056127 2.0933501737 0.1725500724
H 2.8116044291 1.0744029983 -2.3393078216
H 1.1819020957 0.5991433171 -1.8020632408
H 4.3347672058 -1.8553594695 2.3129787417
H 4.6209225021 -3.2995858468 1.2950864497
H 6.4697821545 -1.6405692703 1.0194093142
H 5.5515639997 -1.7901228092 -0.4924396672
H 5.2888118806 -0.3992648253 0.5681272643
H 0.15653411 -0.5610490006 2.4647095383
H -1.350023333 -1.3525863768 1.8749297332
H -3.0857698311 2.6318133649 -2.1895282831
H -4.3524429528 3.2276308268 -1.0730269289
H -2.311198308 4.6628862775 -0.9417173802
H -2.5419815183 3.7951429606 0.5884754609
H -1.3292793312 3.2365053043 -0.5692074036
H -2.8262435769 -2.1225728003 -1.5959653793
H -3.8193290525 -2.6698585692 -0.2133801194
H -5.2821914056 -2.0876460315 -2.1381845502
H -5.5315923702 -0.9185701487 -0.8264023415
H -4.5465915253 -0.4802307361 -2.2301405745
*
