! pbe def2-sv(p) def2/J RI DEFGRID1 loosescf d4 GCP(DFT/SV(P)) printgap
%output
    printlevel normal
end
* xyz 0 1
C 5.3255173525 -1.9418780206 -1.2450083667
C 4.0387503898 -1.373853942 -1.8115521863
O 2.9792011524 -1.5588042442 -0.8505955587
P 2.0856926989 -0.358398123 -0.3091814353
S 3.0907966367 1.2783026676 0.0976036114
O 1.331809714 -1.0712846961 0.8834830538
C 1.8464133986 -1.0811663 2.2350823036
C 1.085577331 -0.0912052531 3.0943469416
S 0.5515493522 -0.2186146827 -1.7457202615
C -0.0106787609 1.4584003996 -1.3342720838
S -0.5527768981 1.625745902 0.3826720082
P -2.238176637 0.3577110687 0.2786363463
S -3.2085845226 0.2718159441 -1.427213454
O -3.0770729636 0.7801345896 1.5631353744
C -3.4904451457 2.1169234733 1.903638853
C -4.1844263928 2.8335210359 0.7640543513
O -1.6767653892 -1.033156448 0.789253208
C -2.229705095 -2.311792971 0.4102648254
C -1.3574874287 -2.9925638984 -0.6260235489
H 5.1835086028 -2.9831691019 -0.9704933802
H 6.1075470152 -1.869270606 -1.9936900707
H 5.6242239405 -1.3806948526 -0.3627781842
H 3.7314263355 -1.9002567206 -2.7171624139
H 4.1471042554 -0.3063956128 -2.0267306903
H 1.7030989389 -2.1056664323 2.5820850825
H 2.9138600062 -0.8439306699 2.2170500305
H 1.4018299223 -0.1950395837 4.1272665563
H 1.2819401813 0.9257139292 2.760419826
H 0.0172885245 -0.2815785814 3.021062342
H -0.8400233459 1.6726509947 -2.0081234921
H 0.8078107033 2.1646422232 -1.4665094067
H -4.1639077625 1.9679147162 2.7496412337
H -2.6056146597 2.6718609085 2.2276627401
H -5.0177071922 2.2412269969 0.3932146672
H -4.5529254802 3.7923101733 1.114431878
H -3.4878324945 3.0001142321 -0.0563855841
H -2.2659145053 -2.8837072081 1.3389276207
H -3.2438347125 -2.1665498048 0.0270304984
H -0.3244185234 -3.016709774 -0.2874056502
H -1.7116241021 -4.0068979671 -0.7792169667
H -1.401774455 -2.4532103088 -1.5699674126
*
