! pbe def2-sv(p) def2/J RI DEFGRID1 loosescf d4 GCP(DFT/SV(P)) printgap
%output
    printlevel normal
end
* xyz 0 1
C 5.5626686453 0.6465614885 0.4007411054
C 4.5748367379 1.4211376069 -0.4469212792
O 3.5077059903 0.5743839563 -0.9201146344
P 2.2669086932 0.1754441167 -0.0243199996
S 1.7409917378 1.4990122371 1.3232530005
O 2.6317867593 -1.2646349448 0.5482608358
C 2.2259290068 -1.7541790043 1.8448451262
C 3.2852208881 -1.4670460977 2.8900740651
S 0.977537023 -0.2283353938 -1.6656230168
C -0.0514119405 -1.5070286879 -0.8801346123
S -1.0127784605 -0.8895070937 0.5162086196
P -2.5600134095 0.0390808753 -0.6288121689
S -2.9705032591 -0.8421901757 -2.3282681791
O -2.1543688491 1.5276344767 -0.9347960512
C -1.5318238926 2.5082952344 -0.0718005515
C -2.0964104218 2.5472885732 1.3305272551
O -3.7460529445 0.2036012538 0.4095421209
C -4.2487339205 -0.8298463953 1.2775667239
C -4.6420971995 -2.0874969948 0.5316591806
H 5.9124436613 -0.2285190031 -0.1404387674
H 6.4076617209 1.2847217128 0.6396256347
H 5.0880124694 0.3249903631 1.3250672526
H 5.0363659595 1.8010537331 -1.3596211733
H 4.1382307405 2.2500475857 0.1207986192
H 1.2733427964 -1.2953758669 2.125509434
H 2.0905781369 -2.8279614265 1.7040363654
H 4.24477504 -1.8681691343 2.5751032681
H 3.3749232363 -0.3941278908 3.0470801937
H 2.9921232166 -1.9329489883 3.8254059695
H 0.5775545391 -2.3159711164 -0.5188885449
H -0.7390380858 -1.8544156929 -1.6552547337
H -0.4584761471 2.2984686364 -0.0471852784
H -1.7020780998 3.447788536 -0.5999381346
H -3.172029028 2.6997609906 1.3043563024
H -1.8749793363 1.6201294964 1.8561118534
H -1.6250656343 3.365404105 1.8670901596
H -3.4818819288 -1.0478266643 2.0261832762
H -5.1119476995 -0.3638000119 1.7557675996
H -3.7653863585 -2.5471304201 0.0777887617
H -5.0928684714 -2.7907198794 1.2244635792
H -5.3519190757 -1.8537404226 -0.2582999054
*
