  14
        -19.32704083
 C         -2.3949734420        0.0294134203       -0.0000416135
 C         -0.8991255158        0.0256777785        0.0000218639
 C         -0.1784291187        1.2200385832        0.0000633972
 C          1.2029806219        1.1718171397        0.0000732994
 C          1.8276235118       -0.0675604937       -0.0000269226
 C          1.0272446734       -1.1970033742        0.0000234828
 N         -0.2965236368       -1.1582570872        0.0000601351
 H         -2.7677428980        0.5448113027       -0.8827756363
 H         -2.7634929747       -0.9911880544        0.0033240790
 H         -2.7679691904        0.5509681400        0.8789197055
 H         -0.7018221378        2.1636803461       -0.0002556622
 H          1.7854089881        2.0814406328       -0.0005600473
 H          2.9022215663       -0.1541517488       -0.0003899330
 H          1.4592466021       -2.1894182240       -0.0004507278
