  17
  -22.4998416200000       6.291591129001821E-002 !gc
 C         -2.5625961746       -0.9702632627        0.0004793273
 C         -1.2349012257       -0.2829102961       -0.0007129851
 C         -1.1512981376        1.1091146512       -0.0004373221
 C          0.0969575736        1.6999712205        0.0001273324
 N          1.2348431490        1.0195194438        0.0004157969
 C          1.1715041768       -0.3073334248        0.0001047971
 C         -0.0428414340       -0.9905880407       -0.0004247259
 C          2.4698847870       -1.0519913317        0.0000807644
 H         -3.1208621329       -0.6999742783        0.8951542860
 H         -3.1468080189       -0.6566180391       -0.8626729939
 H         -2.4419520017       -2.0495279357       -0.0269827532
 H         -2.0445637449        1.7140894587       -0.0008445491
 H          0.2051489327        2.7771019385        0.0004010560
 H         -0.0463236000       -2.0705165174       -0.0006776090
 H          3.2951509975       -0.3472948667        0.0086101410
 H          2.5338806509       -1.6937185540        0.8764256460
 H          2.5411020826       -1.6797255276       -0.8858628584
  17
  -22.4998414500000       6.290459416822293E-002 !md2
 C         -2.5624609667       -0.9704656897       -0.0024232724
 C         -1.2349634566       -0.2827616198        0.0022331430
 C         -1.1512973195        1.1092171359        0.0011589771
 C          0.0970290082        1.7000086156       -0.0002742664
 N          1.2348502944        1.0195080612       -0.0007353833
 C          1.1714348606       -0.3073530991        0.0000877778
 C         -0.0429060870       -0.9905311709        0.0016119260
 C          2.4697913314       -1.0519831065       -0.0000807397
 H         -3.0888179950       -0.7532729766       -0.9305773858
 H         -2.4434983248       -2.0463569604        0.0895029784
 H         -3.1762445175       -0.6082821044        0.8199301536
 H         -2.0444836802        1.7143127250        0.0018713298
 H          0.2053089642        2.7771278707       -0.0006091870
 H         -0.0465153537       -2.0704536329        0.0027738521
 H          3.2950640242       -0.3473079349       -0.0024753897
 H          2.5385341291       -1.6849101192        0.8822824192
 H          2.5363061272       -1.6884506632       -0.8800493999
  17
  -22.4998411600000       6.288529318775905E-002 !gc
 C         -2.5625267089       -0.9703732978        0.0014741407
 C         -1.2349408979       -0.2828261098       -0.0017518809
 C         -1.1512992815        1.1091612339       -0.0006549388
 C          0.0970073016        1.6999824445        0.0003186150
 N          1.2348508947        1.0195206637        0.0003711376
 C          1.1714627122       -0.3073505996       -0.0004156283
 C         -0.0428688250       -0.9905528512       -0.0015650506
 C          2.4698276601       -1.0519789470        0.0007350120
 H         -3.1652812252       -0.6262157289       -0.8367616921
 H         -2.4426531494       -2.0479545115       -0.0661285657
 H         -3.1011156337       -0.7329337392        0.9174534589
 H         -2.0445091239        1.7142175447       -0.0010544992
 H          0.2052023658        2.7771135571        0.0006262108
 H         -0.0464389648       -2.0704800541       -0.0027193290
 H          2.5456780945       -1.6695147709        0.8934467938
 H          2.5293322843       -1.7036733469       -0.8684072934
 H          3.2950181766       -0.3475033247       -0.0194506033
  17
  -22.4998410500000       6.287797367565753E-002 !gc
 C         -2.5624911713       -0.9704171430       -0.0017068423
 C         -1.2349095172       -0.2828287012        0.0015051830
 C         -1.1512624138        1.1092145983        0.0003861192
 C          0.0969720147        1.7000317625       -0.0002884193
 N          1.2348584879        1.0194845155        0.0000679896
 C          1.1714665458       -0.3072969884        0.0007498031
 C         -0.0429099308       -0.9905672794        0.0015907941
 C          2.4697977135       -1.0520039223       -0.0007770934
 H         -3.1616960904       -0.6322502221        0.8414888773
 H         -3.1050330054       -0.7264308393       -0.9135829585
 H         -2.4423276499       -2.0484715777        0.0579410801
 H         -2.0446140801        1.7140625215        0.0004276540
 H          0.2052725308        2.7771336595       -0.0007993148
 H         -0.0463546450       -2.0704918206        0.0024327061
 H          2.5276666134       -1.7067899711        0.8661269572
 H          2.5471871144       -1.6663613406       -0.8955707333
 H          3.2950112587       -0.3476820240        0.0231977050
  17
  -22.4998409000000       6.286799389549527E-002 !md5
 C         -2.5626487961       -0.9702594747       -0.0000436087
 C         -1.2349204643       -0.2829074358       -0.0000996783
 C         -1.1512535395        1.1090592310       -0.0000344049
 C          0.0970499998        1.6999141130       -0.0001138413
 N          1.2348287165        1.0195102358        0.0003296714
 C          1.1714594836       -0.3073553028        0.0005271886
 C         -0.0428380905       -0.9906096918       -0.0000884157
 C          2.4698756121       -1.0518862220       -0.0001100289
 H         -3.1371120633       -0.6722034475        0.8751955784
 H         -3.1307938468       -0.6839422383       -0.8833357582
 H         -2.4417978261       -2.0498182484        0.0073466653
 H         -2.0444449815        1.7141656774        0.0003231852
 H          0.2049121588        2.7770866489       -0.0002856051
 H         -0.0462822721       -2.0705609571       -0.0000404739
 H          2.5513760715       -1.6599462740       -0.8989012828
 H          3.2949569335       -0.3475616752        0.0321366251
 H          2.5239851014       -1.7127479405        0.8625362169
  17
  -22.4998402600000       6.282543129421835E-002 !md3
 C         -2.5621982929       -0.9709099782       -0.0038409121
 C         -1.2351223756       -0.2824445904        0.0036549844
 C         -1.1513095727        1.1094246192        0.0017183440
 C          0.0971526819        1.7001043625       -0.0005109639
 N          1.2348649103        1.0195529345       -0.0010100515
 C          1.1713279725       -0.3073730042        0.0005114000
 C         -0.0430230427       -0.9903595615        0.0029297368
 C          2.4696486947       -1.0520796926       -0.0006124752
 H         -2.4464835719       -2.0400581553        0.1501297179
 H         -3.2029122710       -0.5644490281        0.7758474502
 H         -3.0570455222       -0.8071437387       -0.9601149226
 H         -2.0443524437        1.7147610743        0.0028771631
 H          0.2054461413        2.7772368276       -0.0012061199
 H         -0.0468578320       -2.0702597705        0.0049805560
 H          2.5322781707       -1.6977799810        0.8728053491
 H          2.5422799826       -1.6757701545       -0.8892746698
 H          3.2949006882       -0.3475083307        0.0121108155
  17
  -22.4998401000000       6.281479514714813E-002 !md4
 C         -2.5624827219       -0.9704482868       -0.0022006298
 C         -1.2349725127       -0.2827655168        0.0020296365
 C         -1.1513047419        1.1091938354        0.0015245843
 C          0.0970372553        1.6999893377       -0.0001285059
 N          1.2348489742        1.0195200559       -0.0013079286
 C          1.1714385189       -0.3073805167       -0.0008224693
 C         -0.0428921436       -0.9905357854        0.0007674128
 C          2.4698087727       -1.0519722768        0.0009172997
 H         -2.4431631346       -2.0469666930        0.0815202483
 H         -3.1726188439       -0.6143225720        0.8255230373
 H         -3.0929367957       -0.7464096003       -0.9263432235
 H         -2.0444798587        1.7142916798        0.0025755814
 H          0.2052389564        2.7771199119       -0.0005282879
 H         -0.0465483493       -2.0704652548        0.0013894961
 H          3.2946275400       -0.3482004160       -0.0433783140
 H          2.5560756650       -1.6492214824        0.9064320950
 H          2.5194162856       -1.7229869414       -0.8538888525
  17
  -22.4998397100000       6.278887708168175E-002 !md5
 C         -2.5625273219       -0.9703824319        0.0017252479
 C         -1.2349560521       -0.2828147392       -0.0019393597
 C         -1.1512989227        1.1091682377       -0.0004635626
 C          0.0970160728        1.6999665555        0.0004391999
 N          1.2348499036        1.0194909143        0.0000344930
 C          1.1714654399       -0.3073869734       -0.0010649372
 C         -0.0428898356       -0.9905562776       -0.0022264755
 C          2.4698393663       -1.0519357240        0.0014516220
 H         -3.1681396547       -0.6215337319       -0.8324530988
 H         -2.4429104209       -2.0475858050       -0.0721731201
 H         -3.0979709694       -0.7380831253        0.9208983321
 H         -2.0444850178        1.7142575601       -0.0007700467
 H          0.2052527307        2.7770979091        0.0005987796
 H         -0.0464711473       -2.0704843352       -0.0037312414
 H          2.5187417706       -1.7253835253       -0.8514545138
 H          3.2945773226       -0.3481989021       -0.0452984277
 H          2.5568094530       -1.6465785529        0.9086703794
  17
  -22.4998394700000       6.277293281872148E-002 !mtd4
 C         -2.5619512765       -0.9713062114        0.0043441720
 C         -1.2352397543       -0.2821607426       -0.0046581803
 C         -1.1513203392        1.1096122145       -0.0022787094
 C          0.0972650492        1.7002044583        0.0007121084
 N          1.2348687236        1.0195913164        0.0015618150
 C          1.1712173643       -0.3073923745       -0.0003232363
 C         -0.0431323624       -0.9902176801       -0.0035242009
 C          2.4695143886       -1.0521664785        0.0008162103
 H         -2.4491214420       -2.0344347225       -0.1887674629
 H         -3.0366049878       -0.8423685665        0.9761994915
 H         -3.2188503307       -0.5381836155       -0.7467930840
 H         -2.0442226349        1.7151264898       -0.0038282593
 H          0.2055982325        2.7773258065        0.0015641248
 H         -0.0471762443       -2.0701336088       -0.0060689694
 H          2.5340421247       -1.6943101594       -0.8751067826
 H          3.2948212432       -0.3475904215       -0.0074495013
 H          2.5401801085       -1.6794506729        0.8870796839
  17
  -22.4998037600000       6.044511944229018E-002 !gc
 C         -2.5576509589       -0.9786134067       -0.0077020923
 C         -1.2375459234       -0.2768714782        0.0075383209
 C         -1.1515208584        1.1131311003        0.0026083390
 C          0.0993058135        1.7018913903       -0.0012159008
 N          1.2350090271        1.0201545879       -0.0011114183
 C          1.1693642424       -0.3077796528        0.0021377537
 C         -0.0451464922       -0.9875875301        0.0070998233
 C          2.4671679336       -1.0535752664       -0.0028843284
 H         -3.3452038191       -0.3293659417        0.3653385479
 H         -2.8060867946       -1.2657944450       -1.0290475690
 H         -2.5190519046       -1.8824851835        0.5951734767
 H         -2.0421492326        1.7220640635        0.0044546234
 H          0.2087267519        2.7789332833       -0.0018746372
 H         -0.0532654159       -2.0674451642        0.0116827313
 H          2.5618323980       -1.6299684652       -0.9211856303
 H          3.2920358852       -0.3516130742        0.0640304249
 H          2.5082323455       -1.7441015278        0.8365207179
  17
  -22.4997838700000       5.918619613508235E-002 !gc
 C         -2.5558980151       -0.9817953783       -0.0036493293
 C         -1.2384954856       -0.2746109674        0.0034030000
 C         -1.1515736146        1.1146637247        0.0011864373
 C          0.1001891707        1.7026671988       -0.0004615346
 N          1.2351038184        1.0203979628       -0.0005348363
 C          1.1686007413       -0.3079001927        0.0009830003
 C         -0.0460025207       -0.9864451947        0.0033234572
 C          2.4661637872       -1.0541892848       -0.0012415111
 H         -2.6953177595       -1.4936231767       -0.9547429581
 H         -2.5872357041       -1.7306312096        0.7849470622
 H         -3.3736000818       -0.2805872962        0.1377808711
 H         -2.0413234811        1.7249387484        0.0017939080
 H          0.2101122326        2.7796749251       -0.0010705597
 H         -0.0558658019       -2.0662748264        0.0056442993
 H          2.5216256503       -1.7140428931        0.8618451710
 H          2.5452621674       -1.6632096820       -0.8994257609
 H          3.2918897214       -0.3507909747        0.0284329230
  17
  -22.4997814200000       5.903295007981134E-002 !gc
 C         -2.5557437522       -0.9820698974        0.0020818579
 C         -1.2385550127       -0.2744425508       -0.0023697681
 C         -1.1515598582        1.1147952430       -0.0009460697
 C          0.1002404188        1.7027606398        0.0005029045
 N          1.2351201139        1.0204370276        0.0004271621
 C          1.1685498906       -0.3078550966       -0.0007243219
 C         -0.0460705711       -0.9863479011       -0.0021160235
 C          2.4660311822       -1.0542863319        0.0010259619
 H         -2.6012924609       -1.6985669138       -0.8155630413
 H         -2.6778118985       -1.5321585996        0.9338098065
 H         -3.3758088862       -0.2764918998       -0.0974878418
 H         -2.0412837874        1.7251156300       -0.0018531635
 H          0.2102597056        2.7797482560        0.0011187348
 H         -0.0560023259       -2.0661733751       -0.0035122425
 H          3.2919804848       -0.3509567364       -0.0293532923
 H          2.5455934351       -1.6632469010        0.8993406169
 H          2.5207797804       -1.7143154665       -0.8621019428
  17
  -22.4994755800000       4.271104080281357E-002 !gc
 C         -2.5621278033       -0.9731351716        0.0072899283
 C         -1.2382445036       -0.2788435479       -0.0076716163
 C         -1.1523704675        1.1106160758       -0.0035409924
 C          0.0995225994        1.6983569610        0.0012508488
 N          1.2335313289        1.0166555008        0.0021519934
 C          1.1690739722       -0.3131262102       -0.0011110297
 C         -0.0455714556       -0.9907171673       -0.0061432335
 C          2.4733344351       -1.0470750026        0.0017932435
 H         -2.9330723044       -1.0277173068        1.0304489132
 H         -3.2900102244       -0.4238549885       -0.5846226266
 H         -2.4733650024       -1.9852522267       -0.3780666660
 H         -2.0431176862        1.7192795871       -0.0060023189
 H          0.2096974465        2.7753659354        0.0029406531
 H         -0.0583754283       -2.0704991084       -0.0104523330
 H          2.3146986520       -2.1200557354       -0.0466832893
 H          3.0754527573       -0.7297418042       -0.8461539730
 H          3.0279515303       -0.8048194062        0.9056035960
  17
  -22.4994747200000       4.267218940517550E-002 !gc
 C         -2.5626207058       -0.9723545218        0.0066706882
 C         -1.2380216264       -0.2793918324       -0.0071253981
 C         -1.1523452019        1.1102330263       -0.0032705492
 C          0.0993391695        1.6981620778        0.0010938827
 N          1.2335105389        1.0165732422        0.0020586841
 C          1.1692483185       -0.3131370968       -0.0007461635
 C         -0.0453697849       -0.9910117161       -0.0055110686
 C          2.4736289813       -1.0468543736        0.0014398958
 H         -3.2768904921       -0.4450611996       -0.6210345181
 H         -2.4674793915       -1.9981477602       -0.3387912716
 H         -2.9558108631       -0.9871387734        1.0227356832
 H         -2.0433045110        1.7185801642       -0.0055144507
 H          0.2093865745        2.7751835734        0.0022941686
 H         -0.0578214151       -2.0708051246       -0.0096475969
 H          2.3149614986       -2.1202762113       -0.0357583877
 H          3.0704459762       -0.7378836096       -0.8533936877
 H          3.0337729460       -0.7954742681        0.8992659485
  17
  -22.4994733600000       4.261082210668283E-002 !md2
 C         -2.5615516944       -0.9741748839        0.0076259185
 C         -1.2385926729       -0.2780395095       -0.0080237062
 C         -1.1523678724        1.1111465454       -0.0043314023
 C          0.0998427536        1.6985936036        0.0011751348
 N          1.2334637046        1.0165840449        0.0030418303
 C          1.1687819410       -0.3133340447       -0.0000068530
 C         -0.0459279992       -0.9903865441       -0.0056024450
 C          2.4731149047       -1.0470898423        0.0006408957
 H         -2.4835866074       -1.9632013590       -0.4358841366
 H         -2.9003142943       -1.0882098655        1.0371117155
 H         -3.3075312684       -0.3945772511       -0.5301329472
 H         -2.0427538154        1.7204228590       -0.0075329313
 H          0.2102030464        2.7756187786        0.0026304743
 H         -0.0593617415       -2.0700817988       -0.0089227601
 H          3.0524453794       -0.7647420972        0.8766316502
 H          2.3141982356       -2.1211051498        0.0026900579
 H          3.0512831785       -0.7680456406       -0.8773022704
  17
  -22.4994732300000       4.260496073806939E-002 !gc
 C         -2.5609116795       -0.9752201923        0.0077890482
 C         -1.2389267223       -0.2773543215       -0.0082163838
 C         -1.1524220670        1.1116149671       -0.0039008431
 C          0.1001031843        1.6988033984        0.0011745077
 N          1.2335995760        1.0168177433        0.0025919570
 C          1.1685720535       -0.3131978453       -0.0006635955
 C         -0.0461654224       -0.9899636515       -0.0063146355
 C          2.4726570810       -1.0474793612        0.0014394620
 H         -2.8740486041       -1.1369972268        1.0389780088
 H         -3.3201638055       -0.3739976814       -0.4855017270
 H         -2.4924923510       -1.9434535627       -0.4811464624
 H         -2.0425128591        1.7212605827       -0.0062878505
 H          0.2105678293        2.7757925355        0.0031664011
 H         -0.0601042733       -2.0697215546       -0.0110317128
 H          3.0356119757       -0.7919090769        0.8963122359
 H          2.3133956045       -2.1209604760       -0.0302781405
 H          3.0671229260       -0.7429942353       -0.8566443964
  17
  -22.4994727400000       4.258287513318176E-002 !gc
 C         -2.5599874420       -0.9767340170       -0.0079417485
 C         -1.2393691426       -0.2762286576        0.0078759978
 C         -1.1524787676        1.1123648332        0.0043287648
 C          0.1005396364        1.6991842791       -0.0008126888
 N          1.2336065492        1.0169207420       -0.0033044749
 C          1.1681530880       -0.3133387083       -0.0006969125
 C         -0.0465625680       -0.9894349833        0.0052144662
 C          2.4721770292       -1.0477428457        0.0002320791
 H         -2.5089493892       -1.9072030634        0.5517185245
 H         -3.3378646213       -0.3446543318        0.4121044436
 H         -2.8327908115       -1.2154667481       -1.0355709123
 H         -2.0421121337        1.7226998396        0.0069299811
 H          0.2112606515        2.7761570102       -0.0023125706
 H         -0.0614292861       -2.0691713957        0.0093494747
 H          3.0307067484       -0.8018414342        0.9006257477
 H          2.3129266454       -2.1209098484       -0.0429753351
 H          3.0707107302       -0.7343528892       -0.8516650752
  17
  -22.4994709000000       4.250004359797036E-002 !gc
 C         -2.5601393791       -0.9764989983       -0.0079917335
 C         -1.2392792327       -0.2764503043        0.0078794198
 C         -1.1524594436        1.1122404687        0.0038599234
 C          0.1004323230        1.6991415881       -0.0008685394
 N          1.2336231798        1.0169333050       -0.0027464562
 C          1.1682512647       -0.3132410795        0.0001052656
 C         -0.0464929831       -0.9895062931        0.0059211982
 C          2.4722057897       -1.0477818270       -0.0006822455
 H         -2.8394891967       -1.2025625159       -1.0367134642
 H         -2.5060965854       -1.9135479146        0.5402331292
 H         -3.3351831811       -0.3491258412        0.4242569503
 H         -2.0422209887        1.7223859289        0.0061305259
 H          0.2111151637        2.7761096514       -0.0022803683
 H         -0.0610956209       -2.0692469248        0.0105787187
 H          3.0488912413       -0.7728022704        0.8794796283
 H          2.3123671859       -2.1216266172       -0.0070946205
 H          3.0533852031       -0.7625186264       -0.8744189845
