  17
        -22.49984162
 C         -2.5625961746       -0.9702632627        0.0004793273
 C         -1.2349012257       -0.2829102961       -0.0007129851
 C         -1.1512981376        1.1091146512       -0.0004373221
 C          0.0969575736        1.6999712205        0.0001273324
 N          1.2348431490        1.0195194438        0.0004157969
 C          1.1715041768       -0.3073334248        0.0001047971
 C         -0.0428414340       -0.9905880407       -0.0004247259
 C          2.4698847870       -1.0519913317        0.0000807644
 H         -3.1208621329       -0.6999742783        0.8951542860
 H         -3.1468080189       -0.6566180391       -0.8626729939
 H         -2.4419520017       -2.0495279357       -0.0269827532
 H         -2.0445637449        1.7140894587       -0.0008445491
 H          0.2051489327        2.7771019385        0.0004010560
 H         -0.0463236000       -2.0705165174       -0.0006776090
 H          3.2951509975       -0.3472948667        0.0086101410
 H          2.5338806509       -1.6937185540        0.8764256460
 H          2.5411020826       -1.6797255276       -0.8858628584
