! pbe def2-sv(p) def2/J RI DEFGRID1 loosescf d4 GCP(DFT/SV(P)) printgap
%output
    printlevel normal
end
* xyz 0 1
C 3.4312022964 -3.8640998952 0.1457283286
C 3.8607768516 -2.868881331 -0.9199239038
O 2.7129390586 -2.2796977258 -1.5668791287
C 2.1570142471 -1.2211367962 -1.0268717992
O 2.5578721534 -0.662810888 -0.0238919296
C 0.9260310964 -0.7829650478 -1.7866258847
C 0.5504543757 0.6606790977 -1.44920527
H 1.0421905308 1.3772770907 -2.1068239967
C 0.8471332729 1.0191742508 -0.007601263
O 0.1775399961 0.5465973242 0.9011120952
O 1.7346651044 1.956035126 0.1266052394
C 2.0665702331 2.3918426043 1.4635120818
C 2.8080702617 3.7087833007 1.3556132963
S -1.2483139766 0.9234960869 -1.6258654602
P -2.0625536709 0.1978363096 0.2033924315
S -2.41992087 1.2683188942 1.8183364911
O -3.4357840828 -0.0142828737 -0.615837681
C -4.6704766878 -0.3428990123 0.0215846781
O -1.6809690656 -1.3461189407 0.4432609669
C -0.9985027467 -1.8457003747 1.5901674308
H 2.779923986 -4.6185965626 -0.28658632
H 4.3101287058 -4.3459231262 0.5608669606
H 2.9002676246 -3.3533828886 0.9464767485
H 4.402089788 -3.3602685448 -1.7280240772
H 4.4649158581 -2.0684442284 -0.4842196931
H 0.1180098531 -1.4586553009 -1.488258863
H 1.0773215245 -0.9075587963 -2.8575109022
H 1.1387743135 2.4831873801 2.0377127507
H 2.6839458733 1.609304305 1.9142206721
H 3.0874518099 4.0414096512 2.3495968632
H 3.7021595694 3.5817570142 0.753207871
H 2.1736928663 4.45912214 0.8931224804
H -4.7017669931 -1.4098403838 0.2404997256
H -5.4510312966 -0.0736716717 -0.6857548899
H -4.781504453 0.2284671077 0.946272386
H -1.373370395 -2.8549808143 1.743894245
H -1.2098197213 -1.2175389257 2.4571127354
H 0.0763876872 -1.8516371614 1.4113334326
*
