! pbe def2-sv(p) def2/J RI DEFGRID1 loosescf d4 GCP(DFT/SV(P)) printgap
%output
    printlevel normal
end
* xyz 0 1
C 4.3543215937 1.9813534712 -0.2480657344
C 3.1519898823 1.3194220325 -0.8888806424
O 2.048519357 1.2509868444 0.0494741065
P 1.7067634215 -0.0634507729 0.8481287122
S 0.2689197554 0.1378606152 2.1558828981
O 3.1237744062 -0.4172105931 1.4854121251
C 3.2802870991 -1.5580532752 2.3505285473
C 4.6573064104 -1.4800108551 2.9779868242
S 1.4797224147 -1.6339732158 -0.5825476881
C -0.2615384114 -2.062714429 -0.3466179797
S -1.321792878 -1.5865722199 -1.7506536459
P -2.0518075757 0.2669694163 -1.0801318441
S -3.3840327687 1.1248226985 -2.2278287484
O -0.679658475 1.0587472713 -0.8928847633
C -0.6840008366 2.5033776151 -0.8936040961
C -1.4047261777 3.0739570181 0.3086824083
O -2.5081333613 0.0379971611 0.4288489622
C -3.8601231695 -0.3041534488 0.7734641415
C -4.1855608292 -1.7431157262 0.4258587282
H 4.0853301556 2.9678269152 0.11944925
H 4.7127500861 1.3827454122 0.5847569994
H 5.1425417373 2.076692205 -0.9882885455
H 3.3902652656 0.3092995167 -1.2335244162
H 2.7714221676 1.9079762525 -1.7264183594
H 2.4908072735 -1.5298237961 3.1086132103
H 3.1671451203 -2.4640488892 1.7482169989
H 5.4199382592 -1.4909995518 2.2047044731
H 4.7529794333 -0.5655577113 3.5565883388
H 4.7985509999 -2.3335408687 3.632687682
H -0.6218625051 -1.5817921646 0.5666553776
H -0.3203259556 -3.1457438364 -0.2845296833
H 0.3728885495 2.7692119018 -0.8870525857
H -1.1537038163 2.8403999885 -1.8232173583
H -2.4678270179 2.844172397 0.2495605565
H -1.0034651796 2.644977565 1.2243087526
H -1.2755959418 4.1514890664 0.3264930842
H -3.9093263627 -0.1256989636 1.8486621367
H -4.5344384052 0.3805058693 0.2483714223
H -3.4825497295 -2.4182030286 0.9070608901
H -5.1908298801 -1.9726955679 0.7642529024
H -4.1346905749 -1.8864328416 -0.6531707117
*
