! pbe def2-sv(p) def2/J RI DEFGRID1 loosescf d4 GCP(DFT/SV(P)) printgap
%output
    printlevel normal
end
* xyz 0 1
C 3.522058893 -2.8014147882 -2.0935292081
C 3.8856997642 -1.6959221274 -1.1228933912
O 3.0193382118 -0.5483574354 -1.3118831049
P 1.8499934321 -0.1571080651 -0.315780783
S 1.1215129454 1.5641908192 -0.9133282485
O 2.4542464139 -0.1818430881 1.1672391795
C 2.9016505804 1.0078605511 1.8388114097
C 4.227187262 1.4870419453 1.282757595
S 0.7311817927 -1.9374101637 -0.2226156139
C -0.3287179266 -1.6664572515 1.243654664
S -0.6290819435 0.0685317541 1.6698114158
P -2.0781754088 0.5604983277 0.2234270486
S -2.5393363422 2.4499299643 0.0038220567
O -3.3382301698 -0.3703455406 0.5528870913
C -4.41284377 0.0699879794 1.3970687099
C -3.9828853015 0.1799082928 2.846130962
O -1.4936635565 -0.2133353023 -1.0282395854
C -2.0692960946 -0.0561431978 -2.3442661472
C -1.1025734314 -0.661146137 -3.3405264684
H 2.5213890116 -3.1743610312 -1.8870470777
H 3.5536708419 -2.42541998 -3.1122662934
H 4.2345425278 -3.6133825579 -1.9882372267
H 4.8906490322 -1.3164768744 -1.3164013379
H 3.8107343021 -2.0338005857 -0.0867059944
H 2.1334507601 1.780933817 1.7315289235
H 2.9789011767 0.7104664976 2.8853871628
H 4.5547263483 2.3623513461 1.8346409421
H 4.9776238683 0.7052935926 1.3660771995
H 4.1077131136 1.7555715708 0.2331295547
H 0.1694459551 -2.0957050618 2.1098516002
H -1.2742608862 -2.1645345498 1.0391566361
H -4.7653935697 1.0382203559 1.02757476
H -5.1856528371 -0.6872802132 1.2586297164
H -3.5709958283 -0.7630683756 3.1957697233
H -3.223341944 0.9554218617 2.9461015401
H -4.8400704156 0.4473754004 3.4554154315
H -3.0352312994 -0.567176871 -2.3545307325
H -2.222719161 1.0127805976 -2.5279519296
H -0.9459277607 -1.7127700463 -3.1165804493
H -1.5090379969 -0.5561930017 -4.3408748018
H -0.1465248375 -0.1441613796 -3.2867804336
*
