! pbe def2-sv(p) def2/J RI DEFGRID1 loosescf d4 GCP(DFT/SV(P)) printgap
%output
    printlevel normal
end
* xyz 0 1
C 4.5436598698 0.1521123052 -2.6833786979
C 4.6828816499 -0.6603506274 -1.4132721349
O 3.4061806885 -1.0829834296 -0.8848476829
P 2.2362165155 -0.1096602431 -0.4470940171
S 1.0817973386 0.5436852765 -1.9018355154
O 3.0345487151 0.9982131002 0.3549973633
C 2.4494441062 2.1804166484 0.9315474459
C 2.1794363078 1.9749817694 2.407816453
S 1.2891593676 -1.3525200369 0.9728422132
C 0.0334987945 -2.114628717 -0.1119869019
S -1.6270569021 -2.0974021631 0.6055204914
P -2.1788683116 -0.0924829294 0.2444810598
S -1.0815180913 1.3848968037 0.92951357
O -3.6820107686 -0.0563672145 0.7577415533
C -4.0263476229 0.3140145337 2.1035346714
C -3.5483782589 -0.7096603975 3.112895014
O -2.3540073499 -0.1770678083 -1.3268298119
C -2.4465989167 0.9872880862 -2.1705721356
C -3.6836586495 1.8072869417 -1.8743313912
H 3.9794742115 -0.4031629234 -3.4292340743
H 4.0164484954 1.0830020418 -2.4774892821
H 5.5294793443 0.3820239558 -3.0751361772
H 5.2004043077 -0.0906247266 -0.6389038174
H 5.2031767469 -1.6022056877 -1.5946460282
H 3.1920129232 2.9638486854 0.7686568503
H 1.5291365454 2.4306210566 0.3949598809
H 1.8312617061 2.9089577191 2.8363011992
H 1.4089386687 1.2203337919 2.54861087
H 3.086488987 1.655867221 2.9130177149
H 0.2887201096 -3.1619411768 -0.2475558813
H 0.0253639509 -1.5770665918 -1.0637901608
H -3.5886043605 1.2951250094 2.315433283
H -5.114415761 0.3872374097 2.0849697648
H -3.9223230889 -0.4476407203 4.0973978944
H -3.901492048 -1.7012922794 2.8413496701
H -2.4591017812 -0.7232861706 3.1402160022
H -1.5373925393 1.5833734089 -2.0403663047
H -2.461892657 0.5729351615 -3.1795769411
H -3.7657793478 2.6069732159 -2.6036950108
H -4.5692076886 1.1786975076 -1.9203717062
H -3.6102002714 2.2426893072 -0.8783791056
*
