! pbe def2-sv(p) def2/J RI DEFGRID1 loosescf d4 GCP(DFT/SV(P)) printgap
%output
    printlevel normal
end
* xyz 0 1
C 3.3124695624 1.9358750156 0.3498743498
C 2.4621601979 1.5423386036 1.5392149838
O 1.4194132442 0.5943994106 1.1991130725
P 1.6255597244 -0.8766788341 0.6718848951
S 0.0624700169 -2.0064658938 1.0215008505
O 2.9623479922 -1.3136085369 1.4093897905
C 3.3564266451 -2.6890275367 1.5637792069
C 3.6949152131 -3.3454368765 0.2414749887
S 2.1830387709 -0.7538697196 -1.3803407939
C 0.5597718805 -0.3826875652 -2.0682274531
S -0.0705569098 1.2615590977 -1.5750331919
P -1.8153697486 0.708992671 -0.5589714064
S -2.6644924635 -0.9790882321 -1.1015513044
O -2.7613110728 1.9755321781 -0.7555950125
C -3.5091492131 2.1873003359 -1.9697916266
C -4.6661061488 3.113833157 -1.6545320659
O -1.4165445167 0.8901984259 0.9590498198
C -2.3147116507 0.4807024165 2.0154986453
C -1.5877823051 0.6577500508 3.3307975908
H 2.6837044615 2.2795650958 -0.4688000693
H 3.9790312624 2.7393127366 0.6479723781
H 3.9066655498 1.0910441464 0.0089006349
H 1.8988942392 2.3930903062 1.9263039061
H 3.072454795 1.1049533728 2.3313969528
H 4.2256483695 -2.6346618496 2.2209064817
H 2.5440633708 -3.2262316275 2.0628952457
H 2.7945884179 -3.4607168672 -0.3597511257
H 4.4101244873 -2.7415810245 -0.3109777554
H 4.1187115849 -4.3268424255 0.4288325077
H -0.1672983023 -1.1377647972 -1.755763894
H 0.6828057099 -0.382151548 -3.1481299111
H -2.8344141036 2.6280636638 -2.7081058687
H -3.8590412931 1.2160320491 -2.3360573733
H -5.3305132914 2.6517541343 -0.9296491238
H -4.2912626716 4.0473977227 -1.2450769989
H -5.2174935347 3.315331305 -2.5669339889
H -3.213524766 1.1001528797 1.9611697315
H -2.5869878717 -0.567137652 1.8463914527
H -2.2418863997 0.356046732 4.1422661275
H -0.6944582305 0.0379322057 3.3402101976
H -1.2990843433 1.6966681353 3.4593010916
*
