! pbe def2-sv(p) def2/J RI DEFGRID1 loosescf d4 GCP(DFT/SV(P)) printgap
%output
    printlevel normal
end
* xyz 0 1
C 5.7452029972 1.2349422078 -0.3888021539
C 4.4421989025 0.7050755557 -0.9513239757
O 3.5378290747 0.4945389096 0.1539614545
P 1.9881285183 0.265595559 -0.0886088434
S 1.0865555632 1.6424536942 -1.1542164213
O 1.4182729974 0.190273707 1.3748486504
C 2.0852304657 -0.37873517 2.5322225276
C 2.3381804684 -1.8648248921 2.3930464364
S 1.927854651 -1.6606681218 -0.9924636114
C 0.1644519552 -1.6998386412 -1.3630378541
S -0.8677149756 -1.7735909623 0.1421409847
P -2.0150305774 -0.0263392596 -0.070661477
S -2.3211872323 0.6049693911 -1.9058694201
O -1.3479195736 0.9654982323 0.963603702
C -1.5869562059 2.3865577241 0.9309520146
C -3.0244452946 2.7257959127 1.2591487205
O -3.3428596863 -0.4213158725 0.7108197364
C -4.3384432561 -1.2773807981 0.1168177787
C -5.6173067192 -1.1311050843 0.9164034798
H 6.1659637058 0.5201499977 0.312129408
H 6.4441458259 1.3934019604 -1.2033371273
H 5.5751185879 2.1769168788 0.1250689914
H 4.5838148584 -0.2514036592 -1.4609987156
H 3.9827635655 1.4161274282 -1.6455524147
H 3.0165208501 0.1682508193 2.6873327554
H 1.3851720818 -0.1665008964 3.3419566736
H 3.0776575613 -2.0569663973 1.6188283808
H 2.7105520025 -2.2455860968 3.3391009429
H 1.4167382103 -2.3840780155 2.1378129633
H -0.0064059923 -2.6093239587 -1.9329469018
H -0.1205109637 -0.8140476608 -1.9380216231
H -0.8903042312 2.7814267874 1.6721090073
H -1.3099484798 2.7612038573 -0.0604927773
H -3.3093733717 2.2737989468 2.2055872684
H -3.1324573959 3.8041684579 1.3210512446
H -3.679414469 2.3484856356 0.4744989845
H -4.477395235 -0.9758982721 -0.9270826658
H -3.9655969086 -2.3050049197 0.1448627994
H -5.9750190518 -0.1065062368 0.868696496
H -6.3713819192 -1.7931850046 0.5039445282
H -5.435336691 -1.3929496742 1.9545509277
*
