! pbe def2-sv(p) def2/J RI DEFGRID1 loosescf d4 GCP(DFT/SV(P)) printgap
%output
    printlevel normal
end
* xyz 0 1
C 4.6719785119 -0.2616491199 -2.498200201
C 3.5331938488 -1.203868848 -2.1578976394
O 3.173845683 -1.0684393963 -0.769957941
P 1.8471978174 -0.33083144 -0.2847873823
S 1.4634293804 1.2822042503 -1.3376195054
O 2.1040251719 -0.1789652191 1.2666779101
C 2.6969302508 1.0086651793 1.830889508
C 4.1486406172 1.1521831082 1.4308586781
S 0.5159405258 -1.9872071934 -0.2707250532
C -0.4787488759 -1.8158630027 1.2497582113
S -2.2268827886 -1.4786727113 0.9351455583
P -1.9773567904 0.5544040078 0.3733556824
S -0.7342564143 1.5726178551 1.4871335397
O -3.4574451022 1.1250365741 0.2985296115
C -4.1538250308 1.6663308234 1.4372584203
C -4.4200823955 0.6235940315 2.5029999683
O -1.5702421567 0.5152481443 -1.1473502652
C -2.419540527 -0.0740064854 -2.1688482485
C -1.532603245 -0.7403705718 -3.1996431875
H 4.9874950874 -0.4374680232 -3.5214095466
H 4.3398914317 0.7700390341 -2.4024118131
H 5.5096081989 -0.4299533451 -1.8274664482
H 3.8262533158 -2.2481880773 -2.2787614561
H 2.6602798698 -0.9921307715 -2.7816715352
H 2.1101501015 1.8758088878 1.5099219859
H 2.5777936823 0.8716809273 2.9066700118
H 4.2191650468 1.3267627325 0.3583404425
H 4.5825431946 1.9968771421 1.9565575275
H 4.696053203 0.2466573431 1.6787976093
H -0.059736504 -1.0173188256 1.8616484357
H -0.4374065333 -2.7744594178 1.7594586701
H -3.5593835457 2.4903391058 1.8433995196
H -5.0800238581 2.0526444611 1.0093625192
H -4.9039040155 -0.2477757891 2.0689956525
H -3.483983532 0.3135041422 2.9644163372
H -5.0625861423 1.0512902576 3.2659201804
H -3.0957363862 -0.7917656599 -1.6952187222
H -2.9987769171 0.7423115171 -2.6031769698
H -2.1453364329 -1.0896757044 -4.0241129651
H -0.8008541472 -0.0260165064 -3.5691180132
H -1.0054005543 -1.5840489085 -2.7597722968
*
