! pbe def2-sv(p) def2/J RI DEFGRID1 loosescf d4 GCP(DFT/SV(P)) printgap
%output
    printlevel normal
end
* xyz 0 1
C 5.4300259893 -0.1934735761 -0.8022210744
C 4.4458771552 -0.9000486188 0.1099080512
O 3.4211478119 0.0068433146 0.5622345392
P 2.009522444 0.1266976441 -0.1634814829
S 2.0558386478 0.4302089166 -2.1033096747
O 1.3207233069 1.227033778 0.7378815763
C 1.3760029937 2.6301955235 0.4169357968
C 2.7841789214 3.1739389081 0.519757591
S 1.0767135167 -1.6505022111 0.4702824514
C -0.0890281866 -1.9452731617 -0.9052428794
S -1.8009328722 -2.0422088626 -0.3516739246
P -2.0601118989 0.0192139798 0.1116675249
S -1.3842264776 1.2858656657 -1.2186436593
O -1.3512204102 0.2832155756 1.4938560891
C -1.6242539937 -0.4764690478 2.6982355013
C -2.5704403279 0.2842821051 3.6035959596
O -3.5967799702 0.0951974085 0.5017265306
C -4.6780314855 -0.4497596658 -0.2794219408
C -4.6832332717 0.0536628599 -1.707104722
H 6.2188419576 -0.8847530099 -1.0804047095
H 4.9264678687 0.1504266709 -1.703195426
H 5.8642593162 0.6622028678 -0.2927629652
H 4.9291722727 -1.2473724466 1.0249238559
H 3.9793709318 -1.7477766766 -0.4003365495
H 0.9712189225 2.771713608 -0.5911113474
H 0.7015633011 3.0876292109 1.1424052319
H 2.766764501 4.2475748276 0.3607592829
H 3.1998336322 2.9550727914 1.4998978127
H 3.4115073313 2.7121735898 -0.2420517787
H 0.1439153459 -2.9122041716 -1.3435418297
H 0.0241107377 -1.1409903444 -1.6384674008
H -2.0367333073 -1.4505265705 2.4199011545
H -0.6452520522 -0.6137747224 3.1624221066
H -3.5270749652 0.4313392726 3.1092962636
H -2.7198980622 -0.2837721114 4.5164227927
H -2.1513321586 1.2560401493 3.8495400955
H -4.5994310362 -1.5399742287 -0.2540288944
H -5.5707748158 -0.1274595487 0.2593522742
H -4.6955659481 1.1409888134 -1.7270605968
H -3.7908506347 -0.2874110536 -2.230276469
H -5.5606440452 -0.3260375673 -2.2204913062
*
