! pbe def2-sv(p) def2/J RI DEFGRID1 loosescf d4 GCP(DFT/SV(P)) printgap
%output
    printlevel normal
end
* xyz 0 1
C 1.3181542025 -1.7623313394 2.3346409472
C 2.80973847 -1.6551464866 2.0941244485
O 3.1630267957 -0.4469281895 1.3966150151
P 2.7869055702 -0.189747003 -0.1294582199
S 2.9370585976 -1.7351897304 -1.3160465084
O 3.7977070664 0.9575509838 -0.5093358756
C 3.926110354 2.1709137036 0.2761246428
C 4.6423822157 3.197276919 -0.5757962608
S 0.8874578163 0.8137021545 -0.0949923626
C -0.0265259921 -0.2312645976 -1.2558682996
S -1.25367635 -1.2752858958 -0.4417300861
P -2.7266323343 0.2553034183 -0.2230852685
S -2.9123227518 1.4693965857 -1.7467250123
O -2.3495004339 1.0863017743 1.0584445904
C -2.1411882528 0.4920902386 2.3663483752
C -1.177001896 1.3776405011 3.128225407
O -4.0026755708 -0.5467211105 0.2800433418
C -4.5457759783 -1.7282544558 -0.338935087
C -4.8351502782 -1.5374581986 -1.81286359
H 0.9499729494 -0.8618639916 2.8193113673
H 0.7954462493 -1.9020054601 1.3887847697
H 1.1191415132 -2.6198130398 2.9692610444
H 3.1697667519 -2.508624448 1.5115370607
H 3.3643157145 -1.5839733832 3.0309367623
H 2.924474794 2.5106170605 0.5563628358
H 4.4913952493 1.9271121717 1.1773616785
H 5.6130395336 2.8157096988 -0.8792637627
H 4.0602380664 3.4177758122 -1.466253711
H 4.7763367677 4.1074901488 -0.0003052447
H 0.6758075773 -0.8943061449 -1.7661878834
H -0.5439907602 0.4239945383 -1.9585887798
H -3.1135714454 0.4359286925 2.8585935363
H -1.7427377849 -0.5184741747 2.2345934686
H -1.5893719788 2.3775956225 3.2253831853
H -1.0108246517 0.9589441013 4.1156783213
H -0.2324246007 1.44634626 2.594037398
H -3.8380439048 -2.5477594525 -0.1865522429
H -5.4601552075 -1.9158456748 0.226576472
H -5.3176072415 -2.4270291616 -2.2047864838
H -5.4843814683 -0.6782530848 -1.9645570912
H -3.9085491708 -1.3668843338 -2.359655246
*
