! pbe def2-sv(p) def2/J RI DEFGRID1 loosescf d4 GCP(DFT/SV(P)) printgap
%output
    printlevel normal
end
* xyz 0 1
C 3.9501979796 -2.7400280204 0.4767998437
C 2.4320451262 -2.6912613994 0.4202721761
O 1.9820025412 -1.9333691931 -0.7183851957
C 1.9419194275 -0.6224060031 -0.6347864889
O 2.2238909218 0.0293308753 0.3495910797
C 1.5029022828 0.014069816 -1.9413971806
C 0.2772776893 0.9059235524 -1.7246942462
H 0.1475431483 1.5679822202 -2.5841458709
C 0.4133403404 1.7465198523 -0.4683126216
O -0.3208923552 1.5964211533 0.4939388995
O 1.3329572406 2.6545280565 -0.5896240708
C 1.6503489609 3.5100993842 0.5320983913
C 3.0526978763 3.1962713546 1.0224544461
S -1.2677850951 -0.0557743059 -1.6274257474
P -1.7557737047 -0.3432271368 0.430868239
S -0.5174545332 -1.0508186837 1.7767199738
O -2.7213827598 0.8156552528 0.9214734011
C -3.9369561504 1.15286648 0.2273746477
O -2.8947540474 -1.455229057 0.1290026613
C -2.5675753688 -2.8075966871 -0.1876664075
H 4.2541986221 -3.3762491635 1.3011603686
H 4.3461358681 -3.1399624953 -0.4526703692
H 4.3511108163 -1.7418387631 0.6369502915
H 2.0140578111 -2.2410271993 1.3260450507
H 2.0053405566 -3.6824098973 0.2675942132
H 1.2778826077 -0.7608849398 -2.6724268821
H 2.3268215696 0.6370735446 -2.2951272041
H 1.5792502608 4.5285501388 0.1457099833
H 0.9083524855 3.3477459432 1.3178462316
H 3.1105884657 2.151209074 1.3184199465
H 3.775971795 3.3803874737 0.2339001426
H 3.2820257228 3.8230722307 1.877620208
H -3.7482145217 1.2534246548 -0.8418350089
H -4.2510702199 2.1017708613 0.6549588544
H -4.6843392785 0.3805939584 0.4003535304
H -3.4879942016 -3.3714876258 -0.0587908982
H -1.7975856478 -3.1736547427 0.4946996604
H -2.2162509605 -2.8746631568 -1.2173338009
*
