! pbe def2-sv(p) def2/J RI DEFGRID1 loosescf d4 GCP(DFT/SV(P)) printgap
%output
    printlevel normal
end
* xyz 0 1
C 2.5982271719 -2.954495162 -1.4360864613
C 3.4342396224 -1.7657912484 -1.8619766742
O 3.5900446647 -0.7876774243 -0.8084572509
P 2.425847294 0.0137511995 -0.0852074631
S 3.1697994141 1.59082678 0.7942808171
O 1.6821611219 -1.0220955868 0.8794539465
C 1.9593522788 -1.1335410409 2.2897653414
C 0.935727465 -0.3731416969 3.109098832
S 0.9768384413 0.2858830802 -1.5988365547
C 0.2549258206 1.8181003863 -0.9588778503
S -0.5933528263 1.612607465 0.6285138726
P -2.0307155222 0.2125423463 -0.03358919
S -2.7376354926 0.4408193694 -1.8519203164
O -3.1216753804 0.2028186788 1.1220704405
C -4.2708350074 1.0665293277 1.1090570647
C -3.8959939825 2.520171993 1.314398725
O -1.255783347 -1.1360969094 0.2646339763
C -1.5568576727 -2.3658291787 -0.4230248287
C -2.9265278101 -2.8961462507 -0.0546760285
H 3.0280232388 -3.4223282183 -0.5540300069
H 1.5831875461 -2.6335127193 -1.2096941008
H 2.5685532956 -3.6755389448 -2.2469627035
H 2.9887984894 -1.267913392 -2.7273099883
H 4.4618010784 -2.0541407223 -2.0896011782
H 1.9138109622 -2.2048266226 2.4942164477
H 2.9689308537 -0.7619003471 2.4894628831
H -0.0694862711 -0.6687846906 2.8179985046
H 1.0868464821 -0.591631069 4.1613263865
H 1.0447403537 0.6974128243 2.9484767366
H -0.4533245056 2.1542303834 -1.7155790233
H 1.0428321006 2.5521301369 -0.7927165413
H -4.7907174207 0.9356466572 0.1544848349
H -4.8902438931 0.6912620635 1.9247743507
H -3.3330747183 2.8855009835 0.4564518567
H -4.7989089075 3.1129564854 1.4205687954
H -3.2834951394 2.6306020811 2.2057887567
H -1.486674361 -2.1861157535 -1.5010111785
H -0.7621871449 -3.0433419236 -0.1066025211
H -3.0757832345 -3.8645398717 -0.5218171306
H -3.0150026726 -2.9949298168 1.0240456218
H -3.6947997328 -2.2100017334 -0.4096282023
*
