! pbe def2-sv(p) def2/J RI DEFGRID1 loosescf d4 GCP(DFT/SV(P)) printgap
%output
    printlevel normal
end
* xyz 0 1
C 3.6719586873 -1.7219299896 -2.6186470969
C 3.6560040322 -1.9957177532 -1.1282633995
O 3.7150272679 -0.7622639668 -0.3701194579
P 2.4442279792 -0.0208388383 0.2171706145
S 2.9610812174 1.4668278731 1.3712268744
O 1.5352529475 -1.1519235539 0.8940968663
C 1.5291816002 -1.3740273676 2.3173936646
C 2.8115901154 -2.0359958783 2.7784767518
S 1.2443537702 0.4453226768 -1.4627548226
C 0.239983822 1.7090599 -0.6365911708
S -0.7737146108 1.0597946206 0.710994445
P -2.4216688732 0.3848488857 -0.4860852096
S -2.051870807 -0.1885239344 -2.3174889668
O -3.4182940579 1.6061491475 -0.5362283538
C -3.9651997896 2.2542252841 0.6378593468
C -5.3499167169 1.7221671721 0.9462285326
O -3.1646769357 -0.6245958601 0.4895412505
C -2.5476308579 -1.7337541926 1.1692694356
C -1.6889514084 -2.5839812449 0.2565596309
H 3.7431380382 -2.6651049645 -3.1513345511
H 2.7620036431 -1.2100868341 -2.9264353315
H 4.5256866168 -1.1001245495 -2.8737735607
H 4.5499382077 -2.5401292441 -0.8187640081
H 2.7611878603 -2.5510264159 -0.8378343156
H 1.3871179985 -0.411350175 2.8181249256
H 0.6601864085 -2.0120675908 2.4833615817
H 3.6577450392 -1.3827111488 2.5658870964
H 2.762382555 -2.2107116233 3.848541533
H 2.9579323351 -2.9824566582 2.2645396878
H -0.3997034989 2.1417085382 -1.4035524201
H 0.9011379618 2.4549802189 -0.1959715843
H -3.2825304003 2.1018723015 1.4788578601
H -3.9966371911 3.3136063126 0.3766100484
H -5.3026080207 0.6638524236 1.1875228366
H -5.7597413148 2.2664895073 1.7912655844
H -5.9982770218 1.8547935009 0.0845363929
H -1.9566081039 -1.3315905732 1.9972861196
H -3.3946316944 -2.3012714553 1.5593194784
H -0.822845609 -2.0178459601 -0.0856056033
H -1.3469721298 -3.4625062366 0.7948451764
H -2.2581107542 -2.896569393 -0.6159600084
*
