! pbe def2-sv(p) def2/J RI DEFGRID1 loosescf d4 GCP(DFT/SV(P)) printgap
%output
    printlevel normal
end
* xyz 0 1
C 1.6018268792 -2.2930025202 1.9277263035
C 2.0677657977 -0.9000046284 2.2969322496
O 3.002041456 -0.3508102827 1.3501701966
P 2.7301439049 -0.1585786675 -0.2052277298
S 2.8119757881 -1.7294629351 -1.3673418796
O 3.8681913453 0.8499031574 -0.6118221755
C 4.0867844069 2.1256528344 0.0397859646
C 5.1880656496 2.0178988557 1.0746481807
S 0.9108179796 0.9888296999 -0.2716550435
C -0.0449932601 -0.0656098255 -1.3849188624
S -1.1898799084 -1.1579734784 -0.5100350114
P -2.7287007834 0.2994407801 -0.2566304131
S -3.090215501 1.4336622393 -1.8081761449
O -2.2938423503 1.1523455283 0.9930561139
C -1.9998885397 0.5738133775 2.2917278926
C -1.1314329707 1.5603378497 3.0445388034
O -3.9537149611 -0.5362047157 0.3164572319
C -4.9245191394 -1.1825792565 -0.5271522071
C -4.3120323111 -2.2688836504 -1.3868573805
H 1.005689454 -2.2700713258 1.0156739024
H 2.45526779 -2.9454717094 1.7600939792
H 0.9960453643 -2.6954520674 2.7333542055
H 2.6263773699 -0.9038745143 3.2345296719
H 1.2186177389 -0.2155235396 2.3752316176
H 4.367868546 2.8010013187 -0.7703633686
H 3.1471697909 2.4617249461 0.4870871414
H 5.3710016092 2.9988829513 1.5018653375
H 4.9002527583 1.3285244544 1.8634014756
H 6.0993324839 1.653745214 0.6082985815
H 0.6429649551 -0.7037348718 -1.9440302068
H -0.6190703684 0.5841292271 -2.0469267531
H -2.949521693 0.3987456365 2.8001401275
H -1.4922537391 -0.3836987424 2.1392424413
H -0.2278673411 1.7696090218 2.4768566136
H -1.6679984482 2.493598778 3.1875794425
H -0.8695130339 1.142876955 4.0114304054
H -5.6499826076 -1.5885283914 0.1792874349
H -5.3987222886 -0.4199516747 -1.1521896896
H -5.101585934 -2.8018715761 -1.906842005
H -3.6429029144 -1.8277556063 -2.1246146086
H -3.7475401521 -2.9670915736 -0.7736745794
*
