! pbe def2-sv(p) def2/J RI DEFGRID1 loosescf d4 GCP(DFT/SV(P)) printgap
%output
    printlevel normal
end
* xyz 0 1
C 5.3828459052 -1.9102125672 -1.2094524939
C 4.577022145 -0.6208366396 -1.2189710356
O 3.164232371 -0.8951925346 -1.271837049
C 2.5240340315 -1.101826461 -0.1369997252
O 3.0363923024 -1.0757369354 0.9578653212
C 1.0502551636 -1.3844801651 -0.3779949033
C 0.4073037824 -0.2454243731 -1.1740332339
H 0.9251209767 -0.123296847 -2.1284586477
C 0.4682484372 1.0473714693 -0.3892408145
O -0.5290498811 1.6309219728 -0.0091833899
O 1.6936353514 1.4344643389 -0.1737258533
C 1.9165144027 2.554610141 0.7136350845
C 1.896224703 2.0880430704 2.159675401
S -1.3337500709 -0.5851938107 -1.5906806104
P -2.3721590776 -0.0389261903 0.1817831118
S -1.5692749583 -0.3046848226 1.9629919779
O -3.2200346749 1.2755409478 -0.0821317373
C -3.0776690084 2.5149193345 0.6128936878
O -3.6389602305 -1.0047918399 -0.020368149
C -3.5264637656 -2.4220670354 0.1235900896
H 5.1289915693 -2.5173230187 -2.0739265563
H 6.4411073452 -1.6725670601 -1.2373273809
H 5.172394979 -2.4756614212 -0.3045155498
H 4.7748344075 -0.0349392062 -2.1165153584
H 4.7830370667 -0.0294405752 -0.322735243
H 0.5602442854 -1.5091558855 0.5900411893
H 0.9590894708 -2.306272786 -0.9535509526
H 2.8976979164 2.9318315587 0.4270385442
H 1.1447819935 3.3063756019 0.5303246416
H 2.1502356665 2.9163427971 2.8120744282
H 0.907802592 1.716917204 2.4261796111
H 2.6111500754 1.2808003968 2.3020361646
H -2.5619519099 2.3643896343 1.5627099937
H -4.0873850098 2.8820663925 0.7845895616
H -2.5120330574 3.2088332271 -0.0062025629
H -4.5471086732 -2.7933061111 0.1699031875
H -2.9934413745 -2.6650194968 1.0453943702
H -3.003762416 -2.847633599 -0.7334049417
*
