! r2scan-3c def2/J RI DEFGRID2 scfconv6 printgap
%output
    printlevel normal
end
%cpcm
    smd true
    smdsolvent "water"
end
* xyz 0 1
C -2.4705976478 0.6925551779 1.65838e-05
C -2.4706218508 -0.692494255 -3.44103e-05
C -1.2745226533 -1.3891470971 -4.055e-07
C -0.0754626155 -0.694650332 8.1043e-06
C -0.0754313468 0.6946540234 -2.04816e-05
C -1.2744669737 1.389188005 1.89619e-05
Cl 1.4268297377 1.5658424393 -4.2218e-06
Cl 1.4267743999 -1.5658817467 4.835e-06
H -3.4008538406 1.2366376444 -1.44903e-05
H -3.4008912039 -1.2365598734 7.86058e-05
H -1.2588639543 -2.4664973166 4.4254e-06
H -1.2587663678 2.4665447168 4.86806e-05
*
