! pbe def2-sv(p) def2/J RI DEFGRID1 loosescf d4 GCP(DFT/SV(P)) printgap
%output
    printlevel normal
end
* xyz 0 1
C 5.3716161879 -2.0414202476 -1.8152526789
C 4.2819478976 -0.9879427362 -1.818318016
O 3.2710883725 -1.3844379462 -0.8697369333
P 2.3554252829 -0.3279134183 -0.1142830768
S 3.330013095 1.2243135951 0.5926197331
O 1.6166634897 -1.2519994936 0.9332670882
C 2.1433453371 -1.4681787115 2.2681418296
C 1.4757094004 -0.5392838598 3.2615925696
S 0.8112771226 0.0853406029 -1.4905679572
C 0.140241516 1.5168956216 -0.5958437945
S -0.8934159116 1.0412096107 0.8014405263
P -2.5343899941 0.3257977876 -0.3664108984
S -2.8720723905 1.3639601986 -1.9929017114
O -3.7447321404 0.2225356662 0.6564367022
C -4.6288894474 1.3285230511 0.9190305815
C -3.927486786 2.4758267248 1.6158548333
O -2.2392261891 -1.1879709072 -0.7030741564
C -2.4904383289 -2.320942802 0.1631166281
C -1.6975516599 -2.2542056195 1.450726889
H 6.1231692931 -1.7768031429 -2.5518126352
H 5.8357155096 -2.0977907656 -0.8345472601
H 4.9497744586 -3.0112508052 -2.0624283728
H 3.8073132527 -0.9055705975 -2.7992739803
H 4.673874318 -0.0079684962 -1.5248291472
H 1.9238908335 -2.5148235712 2.4833303707
H 3.2252036508 -1.3136371674 2.2552356272
H 0.3972501292 -0.66106173 3.2286501752
H 1.8364117258 -0.7677851098 4.259185787
H 1.7139772352 0.4956779379 3.0259949595
H -0.4585431045 2.0800714356 -1.3126461312
H 0.9640258441 2.1154860284 -0.2051935929
H -5.0561504666 1.6606462322 -0.0319761104
H -5.4080461237 0.8918729676 1.5454526932
H -3.2060742649 2.9358812719 0.9425067665
H -4.6622194983 3.2209380902 1.9036165151
H -3.4049753411 2.122496 2.5010294265
H -3.5627163995 -2.3640172639 0.3641375763
H -2.1910719937 -3.1719426999 -0.4508718722
H -2.0275674617 -1.4073633765 2.0498197502
H -1.8543830249 -3.170110947 2.0120031151
H -0.6380434931 -2.1435841375 1.2325466618
*
