! pbe def2-sv(p) def2/J RI DEFGRID1 loosescf d4 GCP(DFT/SV(P)) printgap
%output
    printlevel normal
end
* xyz 0 1
C 0.8494977547 1.279436218 -0.9992939142
C 1.4404360011 0.2963342483 0.0098686914
H 2.4515668211 0.0412486304 -0.3271770863
C 0.6194956816 -1.0122403723 0.0252193011
H 0.5809009958 -1.3906674527 1.0590001892
C -0.8321573385 -0.7709397905 -0.4458567532
H -0.8795666646 -0.8973708749 -1.5328178492
C -1.2786539105 0.6600812941 -0.0895060911
H -2.3128591374 0.8148845255 -0.4255597221
O -0.5053854593 1.6326653961 -0.7284112727
O -1.306113741 0.825138619 1.3008509038
O -1.7156188557 -1.7119395584 0.1103483848
O 1.288726922 -1.9356557402 -0.7995934941
O 1.4696593167 0.9139524967 1.2794576984
H 0.9183873264 0.8361883523 -1.999381377
H 1.3999518428 2.2209206421 -0.9736860914
H -0.4022099297 1.0487298392 1.603422351
H -1.9678410282 -1.4087907709 0.9975721104
H 0.7795238117 -2.7582809649 -0.8367341641
H 2.1179727072 0.4773790976 1.8495718981
*
