! pbe def2-sv(p) def2/J RI DEFGRID1 loosescf d4 GCP(DFT/SV(P)) printgap
%output
    printlevel normal
end
* xyz 0 1
C 5.7497413737 -1.3976494407 -0.6435645859
C 4.8189729478 -0.901957149 -1.7307242212
O 3.4304083835 -1.1153459192 -1.4029321474
P 2.7120052289 -0.3590913813 -0.2127314384
S 3.2269210647 1.5188709003 0.0617425405
O 3.0254570136 -1.3155503133 1.019227207
C 2.8582877241 -0.894613344 2.3836994388
C 1.3975201718 -0.8124337603 2.7766658572
S 0.7199188918 -0.7571517263 -0.8066647581
C 0.0348697992 0.9294830954 -0.7221147196
S -1.1588535072 1.1476058877 0.6114611063
P -2.9503945141 0.6121387261 -0.431952226
S -2.7755374658 0.6479047635 -2.3843038623
O -4.0535126087 1.6096735609 0.0758271686
C -4.7304018015 1.5353544142 1.3573777667
C -3.7752266677 1.6510019299 2.5252059354
O -3.4644770051 -0.7688214128 0.1713361312
C -2.8372170107 -2.0321294684 -0.1160881241
C -1.9842209282 -2.4773342638 1.0553203555
H 5.5192067666 -2.4302187788 -0.395045006
H 6.7756187776 -1.3289658299 -0.9920685317
H 5.6387942825 -0.7858246206 0.2504558958
H 4.9521597367 -1.4562842349 -2.6608256931
H 4.9702051486 0.1672008037 -1.9116989106
H 3.3868617166 -1.6546243084 2.9607080552
H 3.3475922089 0.0768774745 2.5101510259
H 1.3225389314 -0.5918245675 3.836516399
H 0.9001477475 -0.0175665214 2.2201624899
H 0.9018262355 -1.7573471067 2.5699099692
H -0.4669970886 1.1311326799 -1.6702195894
H 0.8517743312 1.6329298957 -0.5471813396
H -5.4241308141 2.3764115477 1.3175819119
H -5.2843007942 0.5957546355 1.3937436341
H -4.3457955427 1.6741820649 3.4484801869
H -3.0996948678 0.7980320431 2.5468313953
H -3.1845686987 2.5600148667 2.4457996051
H -3.6637140613 -2.7236814119 -0.2912930217
H -2.2423012871 -1.942559631 -1.0311384475
H -2.5881498788 -2.5347367253 1.9562842664
H -1.5667453884 -3.4546712138 0.83660449
H -1.1707259082 -1.7749748861 1.2154985702
*
