  17
        -20.13655609
 C          4.3990309592       -1.0644612278        0.1879522391
 C          3.5759077826        0.0862447700       -0.3784245690
 C          2.2005277478        0.1715501657        0.2790574084
 C          1.3661937898        1.3153347675       -0.2901507883
 C          0.0153902998        1.4608390096        0.3766453189
 I         -1.3170229025       -0.2160433940       -0.0226288988
 H          3.8910215231       -2.0123258520        0.0251358709
 H          5.3729783198       -1.1094915455       -0.2925638856
 H          4.5488653641       -0.9361200472        1.2576160883
 H          3.4528456925       -0.0517585785       -1.4548531369
 H          4.1103146324        1.0261794645       -0.2230372059
 H          2.3230803794        0.3122308329        1.3560310179
 H          1.6748801466       -0.7742339908        0.1257930107
 H          1.8996040961        2.2583181605       -0.1376565787
 H          1.2404435465        1.1776523523       -1.3664537613
 H         -0.5172661687        2.3356033061        0.0141137333
 H          0.1056220144        1.5055904014        1.4586766120
  17
        -20.13648709
 C          5.2624840865       -0.9066690860        0.3421497114
 C          3.8931750821       -0.9599755430       -0.3246980318
 C          2.8179333302       -0.3099257185        0.5439723433
 C          1.4443735287       -0.3604594232       -0.1267542606
 C          0.4048797749        0.2909941599        0.7595767668
 I         -1.5769674866        0.2550971266       -0.1384854841
 H          5.5589941627        0.1240147844        0.5227370486
 H          5.2431968343       -1.4296226686        1.2955497657
 H          6.0120378014       -1.3739957990       -0.2910928467
 H          3.6221427467       -2.0004073625       -0.5157031380
 H          3.9376838426       -0.4468331137       -1.2875859841
 H          3.0901671600        0.7303196241        0.7364344421
 H          2.7716711651       -0.8249514411        1.5061868513
 H          1.4907158647        0.1554149076       -1.0883512366
 H          1.1718860539       -1.4005812533       -0.3186988771
 H          0.6273028542        1.3400339061        0.9358163300
 H          0.3050076202       -0.2269381515        1.7097240675
  17
        -20.13582997
 C          4.0463933511       -0.9991998593       -0.1574296103
 C          2.9948846955        0.0362050450       -0.5389963873
 C          2.1848654445        0.4786248456        0.6783658534
 C          1.2204227674        1.6286810342        0.3923131148
 C          0.1375912149        1.3152562290       -0.6187869724
 I         -1.2069478478       -0.2704029689        0.0307417824
 H          4.6085542291       -1.3131243927       -1.0333825511
 H          4.7428463152       -0.5866822376        0.5690275686
 H          3.5742768743       -1.8759319970        0.2802764218
 H          2.3338786975       -0.3985631174       -1.2914054478
 H          3.4853659845        0.9052394950       -0.9841984823
 H          2.8750633941        0.8017807532        1.4605985395
 H          1.6273503311       -0.3760434351        1.0692830895
 H          0.7600852419        1.9471717205        1.3304844254
 H          1.7844128404        2.4774351665       -0.0059663656
 H          0.5478220927        0.9778615670       -1.5654988983
 H         -0.5029680982        2.1769322700       -0.7858336723
  17
        -20.13580481
 C          3.8850018571       -0.8836234014       -0.7489628854
 C          3.6469953853        0.1243000583        0.3702622581
 C          2.1649651540        0.3854411676        0.6399586502
 C          1.4629379661        1.0990265412       -0.5125004671
 C          0.0349181242        1.4817228700       -0.1891238142
 I         -1.2729093908       -0.2439682260        0.0550384085
 H          3.3496000483       -1.8087321622       -0.5472637814
 H          3.5525876187       -0.4942126611       -1.7076231154
 H          4.9448246850       -1.1120283954       -0.8283083383
 H          4.1420116465        1.0662458178        0.1239448864
 H          4.0995872879       -0.2564921184        1.2881533410
 H          2.0742478526        0.9977224559        1.5411926976
 H          1.6670922433       -0.5675821095        0.8349945194
 H          1.9979602392        2.0263922680       -0.7379948971
 H          1.4833882454        0.4754676697       -1.4074911081
 H         -0.4141627926        2.0636213546       -0.9892224131
 H         -0.0324035266        2.0286705699        0.7475241672
  17
        -20.13578048
 C          4.6129512881       -0.0739103188        0.0397689606
 C          3.4186390134       -1.0196243094       -0.0288618565
 C          2.1357116307       -0.3385516166       -0.5055122638
 C          1.5952295415        0.6828112297        0.4917422952
 C          0.3007109332        1.3242739668        0.0414766473
 I         -1.3759755736       -0.0683781790       -0.0044321558
 H          4.4657395445        0.6921898023        0.7965318502
 H          5.5138975718       -0.6273638809        0.2924713284
 H          4.7686240351        0.4126492788       -0.9206210224
 H          3.2475008209       -1.4628804898        0.9545449559
 H          3.6523932566       -1.8322354898       -0.7198158176
 H          1.3769182105       -1.1081276440       -0.6695858831
 H          2.3221161577        0.1532343926       -1.4635554215
 H          1.4601025317        0.2076955540        1.4660657942
 H          2.3183910177        1.4932047472        0.6125795935
 H          0.3779988335        1.7146507247       -0.9698446033
 H         -0.0107882122        2.1142865156        0.7191262150
  17
        -20.13574135
 C          4.9714592123       -1.0950305442        0.2399681354
 C          3.4943740146       -0.9861235093       -0.1212455644
 C          2.9450478417        0.4033291197        0.1991487688
 C          1.5040208291        0.6183027264       -0.2728753358
 C          0.5279898954       -0.2223274528        0.5234725914
 I         -1.5331480297        0.1515460598       -0.0671599820
 H          5.1186053703       -0.9071648391        1.3010692529
 H          5.3476166356       -2.0889305533        0.0116248283
 H          5.5558785403       -0.3690693936       -0.3204604275
 H          2.9381973931       -1.7454261471        0.4314874170
 H          3.3670986216       -1.1871375152       -1.1872916859
 H          3.5746383214        1.1481368074       -0.2916647886
 H          3.0048438081        0.5784379029        1.2756954248
 H          1.2500961883        1.6744215463       -0.1575939252
 H          1.4280798663        0.3703290211       -1.3338842852
 H          0.5751431773        0.0066385705        1.5848649800
 H          0.6811661113       -1.2857524896        0.3678950848
  17
        -20.13566030
 C          4.3629734023       -1.3045233757        0.1984882155
 C          4.1051778096        0.1005989815       -0.3340160175
 C          2.8792344494        0.7679456410        0.2915773182
 C          1.5668501317        0.0897846451       -0.1068263729
 C          0.3938833914        0.8625260672        0.4568079554
 I         -1.5128767271       -0.0509804972       -0.0596767202
 H          5.2936426113       -1.6930581379       -0.2072112052
 H          4.4412312177       -1.2920120014        1.2832965343
 H          3.5638848143       -1.9849810012       -0.0831967453
 H          3.9809183292        0.0617075993       -1.4181683005
 H          4.9775565778        0.7225255051       -0.1232488427
 H          2.8472946893        1.8123686581       -0.0278125159
 H          2.9779658799        0.7557867849        1.3792599275
 H          1.4965337039        0.0479833607       -1.1960199417
 H          1.5479439752       -0.9329033988        0.2722582124
 H          0.3495939864        1.8739461195        0.0616035876
 H          0.4185082217        0.8945273159        1.5428237792
  17
        -20.13506741
 C          4.0420891012       -0.2991823994        0.6884790520
 C          2.8857119927       -0.8385043615       -0.1462899298
 C          2.1442187172        0.2466284671       -0.9288128149
 C          1.4818824086        1.3254581203       -0.0716425905
 C          0.4484457315        0.8150603076        0.9092334505
 I         -1.2545575730       -0.1394025368       -0.0587354819
 H          4.7222469722        0.2773921960        0.0656869355
 H          3.6863887228        0.3386510804        1.4939016470
 H          4.5981138084       -1.1213720097        1.1322349524
 H          2.1896000018       -1.3799985459        0.4975287145
 H          3.2773366032       -1.5597872584       -0.8668719999
 H          1.3807223456       -0.2316485814       -1.5477394674
 H          2.8494456545        0.7374206395       -1.6028554303
 H          2.2440933206        1.8446841965        0.5146312880
 H          1.0213936703        2.0617539345       -0.7346411364
 H          0.0226899077        1.6297092633        1.4885070936
 H          0.8556724163        0.0657048139        1.5808797453
  17
        -20.13489769
 C          3.9199719668       -1.2774617712        0.0604515314
 C          3.6821279698        0.0538704353       -0.6439388876
 C          2.9077890792        1.0610668009        0.2092898997
 C          1.5057165121        0.6112413010        0.6330546529
 C          0.5983421335        0.4155170111       -0.5630242413
 I         -1.4333668005       -0.0880040715        0.0355530652
 H          4.5727749268       -1.9069222177       -0.5391884859
 H          4.3919258294       -1.1167205499        1.0270327330
 H          2.9883879092       -1.8153446184        0.2169329406
 H          3.1599492505       -0.1188773678       -1.5868491459
 H          4.6487889541        0.4993452027       -0.8886570314
 H          2.8248756000        1.9989993103       -0.3448557182
 H          3.4805339468        1.2626487481        1.1166533278
 H          1.5697372999       -0.3136215876        1.2079451332
 H          1.0839187450        1.3774382515        1.2876044456
 H          0.9211734567       -0.4079659841       -1.1925648435
 H          0.5142708006        1.3226467566       -1.1558179961
  17
        -20.13342657
 C          3.9115989772       -0.8671692720       -0.2424895663
 C          2.5033782905       -0.3555164422        0.0369852859
 C          2.4490856821        1.1701793086       -0.0020208554
 C          1.1243088972        1.7724800607        0.4692975525
 C         -0.0608379465        1.4863547303       -0.4370029955
 I         -1.1323695863       -0.3556186957        0.0232391020
 H          4.2520698276       -0.5313784267       -1.2195157484
 H          4.6079901380       -0.4996613106        0.5078754801
 H          3.9310926596       -1.9538700589       -0.2267192784
 H          2.1794400948       -0.7066607959        1.0194912056
 H          1.8253214569       -0.7748552870       -0.7077373773
 H          2.6574837654        1.5120047849       -1.0190261985
 H          3.2396677205        1.5610163074        0.6427545503
 H          0.9130310388        1.4442407917        1.4887938574
 H          1.2429961510        2.8594772286        0.4973435931
 H          0.2417689221        1.3977581275       -1.4768666181
 H         -0.8194196770        2.2584556126       -0.3442267194
  17
        -20.13335655
 C          3.6149784395       -1.2615839695        0.3533990995
 C          3.9009869752        0.0825279144       -0.3062660754
 C          2.8908675230        1.1766180897        0.0449331396
 C          1.4640254694        0.8933108403       -0.4530632536
 C          0.5989023543        0.3306714347        0.6557635631
 I         -1.4149419456       -0.1272071741       -0.0381945604
 H          3.5295885321       -1.1484157568        1.4321688776
 H          2.6966187225       -1.7000136091       -0.0289740544
 H          4.4249321560       -1.9572929144        0.1477605783
 H          3.9254808850       -0.0464702636       -1.3905083547
 H          4.8904493592        0.4234353293        0.0060820127
 H          3.2382723227        2.1084632167       -0.4036440832
 H          2.8775546698        1.3216103916        1.1273592317
 H          1.0115511880        1.8181804917       -0.8165902839
 H          1.5010115034        0.1957003644       -1.2918834264
 H          0.4712423550        1.0466388461        1.4634702249
 H          0.9880196410       -0.6021733053        1.0511393586
  17
        -20.13316968
 C          3.5460104047       -0.7101153350        0.8581976284
 C          3.5347049188       -0.0584068474       -0.5200486970
 C          2.1376216948        0.2948006233       -1.0347412884
 C          1.4124081557        1.3645650383       -0.2091238482
 C          0.4775679969        0.8139814886        0.8486314745
 I         -1.2626427867       -0.1867263840       -0.0034577800
 H          3.2273344629       -0.0106780636        1.6273136788
 H          2.8905922006       -1.5786377975        0.8759934961
 H          4.5520902194       -1.0409222326        1.1052154536
 H          3.9924000375       -0.7451529612       -1.2354749764
 H          4.1470220825        0.8459235481       -0.4963477358
 H          1.5301058265       -0.6121653036       -1.0742936306
 H          2.2428323939        0.6541990544       -2.0601032916
 H          2.1506694928        1.9861178985        0.3049584693
 H          0.8456670736        2.0202655829       -0.8734042007
 H          0.0694031384        1.6086535297        1.4676074049
 H          0.9548218809        0.0669256777        1.4741743207
  17
        -20.13306080
 C          2.9701645497       -0.9806045008        0.4823080087
 C          3.1798130038        0.4235978026       -0.0768725090
 C          2.0810573392        0.8560042521       -1.0604559312
 C          1.0533139450        1.8196116428       -0.4669862292
 C          0.2276096328        1.2548265069        0.6689215275
 I         -1.0799879396       -0.3717667982        0.0439319312
 H          2.9726398148       -1.7118514163       -0.3229379035
 H          3.7691336751       -1.2342829594        1.1754466274
 H          2.0244734851       -1.0686052078        1.0108282015
 H          4.1441998611        0.4417547255       -0.5876638136
 H          3.2394378271        1.1399287284        0.7456821342
 H          1.5677485910       -0.0289736949       -1.4427727300
 H          2.5375560904        1.3566379406       -1.9159252126
 H          1.5746904736        2.6968691585       -0.0721677283
 H          0.3887775433        2.1631779601       -1.2634408267
 H         -0.4386279965        2.0081427106        1.0809410894
 H          0.8484023167        0.8455395986        1.4598996105
  17
        -20.13305284
 C          3.8945268529       -1.4661030534       -0.1934678616
 C          3.7415734305       -0.0085492732        0.2310423371
 C          2.8968671575        0.8251132824       -0.7430578183
 C          1.4365458641        1.0121929577       -0.3172408729
 C          0.6740342735       -0.2948253322       -0.3017298297
 I         -1.4366631751        0.0048703376        0.1498351443
 H          4.3877224525       -1.5265042484       -1.1610558929
 H          4.4999654709       -2.0062562786        0.5306850387
 H          2.9322586801       -1.9649196486       -0.2716420422
 H          4.7396793398        0.4281344608        0.2977151798
 H          3.3033671941        0.0397237314        1.2299293229
 H          2.9287760610        0.3686828014       -1.7342075294
 H          3.3303117479        1.8226796369       -0.8295371000
 H          1.4043342405        1.4697135461        0.6742355478
 H          0.9594722757        1.7025534023       -1.0169372124
 H          1.0342415016       -0.9688741392        0.4690999561
 H          0.6985156819       -0.7864600463       -1.2706709502
  17
        -20.13304302
 C          3.7847240296       -0.9978967277        0.2306615915
 C          2.7871677846       -0.0690773304       -0.4501497203
 C          2.1533365635        0.9024732302        0.5447928181
 C          1.1130465284        1.8267429469       -0.1088952469
 C         -0.2982119976        1.6132217740        0.3963111917
 I         -1.0870314212       -0.3619684080       -0.0716433476
 H          3.2899364710       -1.5924735352        0.9953978688
 H          4.2305632990       -1.6744873429       -0.4937495770
 H          4.5799833448       -0.4246732939        0.7022338676
 H          2.0069639141       -0.6677601277       -0.9247727767
 H          3.2955060237        0.4984193007       -1.2331435814
 H          2.9448141931        1.4991151096        1.0014426216
 H          1.6837720776        0.3263969247        1.3455239838
 H          1.3574273644        2.8712624520        0.1005946865
 H          1.1379385408        1.6998169857       -1.1931112682
 H         -0.9944396681        2.3117330468       -0.0602064379
 H         -0.3521069900        1.6947905882        1.4786870071
  17
        -20.13269826
 C          3.8625224706       -0.9173935789       -0.3503921671
 C          2.6507638533       -0.2533251072        0.2926920303
 C          2.3026855645        1.0610494642       -0.4054028722
 C          1.1365973467        1.8243006456        0.2365667186
 C         -0.2214136244        1.5714349660       -0.3875859298
 I         -1.1094560028       -0.3644830659        0.0728213096
 H          4.7305699835       -0.2634939855       -0.2978842025
 H          4.1005278404       -1.8476051651        0.1589837889
 H          3.6642466604       -1.1407737210       -1.3965162396
 H          2.8641309471       -0.0547578223        1.3457229342
 H          1.8072466334       -0.9420847323        0.2492775843
 H          2.0769119089        0.8634636610       -1.4558905768
 H          3.1897451969        1.6977154241       -0.3801805410
 H          1.1052389836        1.6183303347        1.3082800454
 H          1.3134267465        2.8972277225        0.1172242397
 H         -0.1738471820        1.6132221607       -1.4724978862
 H         -0.9515886595        2.2911678960       -0.0270300027
  17
        -20.13263729
 C          3.2787245902       -1.1334862333       -0.4458286609
 C          3.1914771808        0.3864756945       -0.3550767326
 C          2.1749193567        0.8515683860        0.7018373775
 C          1.1147056166        1.8049190090        0.1515305526
 C          0.1623987481        1.1570600965       -0.8318906922
 I         -1.1273006376       -0.3357633204        0.0934968287
 H          2.3122579743       -1.5609721334       -0.7056257286
 H          3.9990055986       -1.4305867134       -1.2046377297
 H          3.5914168619       -1.5544768240        0.5069330241
 H          2.9199357961        0.7844627363       -1.3350921994
 H          4.1794087258        0.7828282939       -0.1155978844
 H          2.6940483167        1.3529395486        1.5194650000
 H          1.6727364943       -0.0187594686        1.1302478705
 H          0.5476498359        2.2329204509        0.9812063122
 H          1.6073538174        2.6292576786       -0.3720468831
 H          0.6885888497        0.6289893318       -1.6217816500
 H         -0.5159310160        1.8858119747       -1.2669045562
  17
        -20.13247119
 C          2.9071262122       -0.8366935154       -0.5791645684
 C          2.6310504138        0.0404817283        0.6361308400
 C          2.3793895534        1.5054694300        0.2766992633
 C          1.1291553968        1.7806686044       -0.5626088680
 C         -0.1845245710        1.5635675888        0.1693379885
 I         -1.0058113820       -0.4503708117        0.0101920699
 H          3.1814144688       -1.8396857456       -0.2620701838
 H          2.0295166307       -0.9192622670       -1.2153170045
 H          3.7241276702       -0.4255372035       -1.1681708166
 H          3.4977278976        0.0031939566        1.3004212539
 H          1.7841574069       -0.3631359360        1.1925589649
 H          3.2429728973        1.8754269360       -0.2807444496
 H          2.3121389353        2.0869199572        1.2000073522
 H          1.1543250408        2.8358183328       -0.8501953060
 H          1.1588628990        1.1988364588       -1.4842353132
 H         -0.9682069555        2.1948669810       -0.2399498789
 H         -0.0850473091        1.7537572642        1.2347221262
  17
        -20.12997875
 C          2.7402937363       -0.9275572712        0.6109984550
 C          2.6842845918        0.1019715567       -0.5126873976
 C          2.4071844559        1.5287224519       -0.0167341472
 C          0.9594611520        2.0070387309       -0.1553999618
 C         -0.0454182128        1.3270361327        0.7595501821
 I         -0.9921578291       -0.4468241823       -0.0840724214
 H          2.9511916087       -1.9140405877        0.2048795032
 H          3.5268401885       -0.6737277503        1.3189227641
 H          1.7995195854       -0.9845218568        1.1512890764
 H          1.9263102250       -0.1911453928       -1.2409749575
 H          3.6456564150        0.0871254165       -1.0301675058
 H          3.0221315711        2.2259684158       -0.5889902478
 H          2.7120422512        1.6131564204        1.0286960606
 H          0.9413766243        3.0706816757        0.1003125503
 H          0.6445246292        1.9232541657       -1.1973202244
 H         -0.8815137840        1.9863870426        0.9759962408
 H          0.4118122239        1.0055388129        1.6911875199
