! pbe def2-sv(p) def2/J RI DEFGRID1 loosescf d4 GCP(DFT/SV(P)) printgap
%output
    printlevel normal
end
* xyz 0 1
C 2.8391078659 -2.2391909649 -2.5264443684
C 3.5331963749 -1.0955420761 -1.8130314463
O 3.0060152808 -0.9700279981 -0.4742755219
P 2.2222253889 0.2923820441 0.0658487248
S 1.5753164847 1.5378518004 -1.3156777148
O 3.3041317281 0.951773868 1.0283748796
C 3.1713500776 2.2818189042 1.5533619187
C 2.0490106727 2.3779065127 2.5673367695
S 0.9562832991 -0.6898948456 1.4385685668
C 0.2054920721 -1.9193838927 0.3296458144
S -0.6069624579 -1.1937943108 -1.1240207413
P -1.9664129578 0.1199258881 -0.1645100543
S -1.4330587794 1.8025614084 0.6729480414
O -2.7098354063 -0.9096795586 0.8042832965
C -3.0424021243 -0.6497044639 2.1839548093
C -2.2272751938 -1.5350105447 3.1052634923
O -2.9768223853 0.4229019285 -1.3438106018
C -3.6759625443 -0.6183217932 -2.0754157401
C -5.0542325576 -0.0992824444 -2.4302378619
H 3.2717665754 -2.3536210816 -3.5149126405
H 2.9691149709 -3.1631726691 -1.9701779567
H 1.7756804087 -2.0279383556 -2.6273536685
H 3.3816017659 -0.1509252757 -2.3453019746
H 4.6014198457 -1.2832667578 -1.6943837175
H 4.1433578935 2.483892009 2.0054347169
H 2.9969258691 2.9697796388 0.7191792915
H 2.1684036206 1.6183477172 3.3360431363
H 2.0583495747 3.3615865728 3.0254892601
H 1.084821232 2.234345161 2.077098123
H -0.5263013515 -2.4616058637 0.9240446765
H 0.9753283431 -2.5851384501 -0.053909434
H -2.8640199276 0.4092649889 2.3965118226
H -4.109054694 -0.8659454328 2.2673580254
H -1.1706423045 -1.2813357161 3.0395378127
H -2.5618576035 -1.3769708163 4.1253490751
H -2.3664390059 -2.5804573654 2.8441901402
H -3.0873817898 -0.8347937621 -2.969727505
H -3.7340248647 -1.5122167788 -1.4502434279
H -5.6199194566 0.115377941 -1.5277009765
H -4.9675006183 0.8142749874 -3.0116918801
H -5.5772148327 -0.849950915 -3.0139827462
*
