! wb97x-v def2-tzvp def2/J RIJCOSX DEFGRID2 scfconv7 GCP(DFT/TZ) printgap
%output
    printlevel normal
end
%cpcm
    smd true
    smdsolvent "water"
end
* xyz 0 1
C -2.60321993250702 1.4111626759362497 -6.397335289562724e-06
C -1.6165840323534673 0.2919902482198941 -3.325518386680231e-05
C -1.8822123175038872 -1.0558918185466495 -4.5302212964462974e-05
N -0.7010067336797968 -1.7738747674898498 7.867335360777802e-05
C 0.3565132035294364 -0.8981857736883778 -2.8218992795625637e-05
C -0.18622494309485244 0.4181104041557225 -2.426758572165563e-05
C 0.6890860031379346 1.5142421952103338 2.2939918026215286e-05
C 2.05758766032337 1.280050971063342 1.970242646191901e-05
C 2.57144529028992 -0.03143677922528449 -1.898819276328027e-05
C 1.730362472425538 -1.1372749343950375 -3.19312776211849e-05
H -3.6276512397016782 1.029052725167474 0.0004413058350336125
H -2.482167896454421 2.0528202164222296 0.8807592038932751
H -2.4827729896576454 2.0523539616052906 -0.8811972496090422
H -2.8340572829493684 -1.5695938395685913 -4.914162151274782e-05
H -0.6310502595450584 -2.779173199482881 -0.0006433953781135535
H 0.30045795311624957 2.5288816857316543 5.613467634327168e-05
H 2.747327930305909 2.1185252091296665 4.751173246242113e-05
H 3.6467309464582676 -0.181241503339349 -2.7116404482996365e-05
H 2.12540569801253 -2.148555888344662 -4.175423864708635e-05
*
