! pbe def2-sv(p) def2/J RI DEFGRID1 loosescf d4 GCP(DFT/SV(P)) printgap
%output
    printlevel normal
end
* xyz 0 1
C 4.6743404719 0.3809526327 -1.8378274404
C 4.4730769025 0.9297828406 -0.44064312
O 3.4483097476 0.2193197458 0.2766922819
P 1.9168888438 0.2963417683 -0.1410578105
S 1.3424863763 2.0872951011 -0.6742639143
O 1.1694693725 -0.2460911108 1.1414280511
C 1.7103846978 -1.3248027708 1.9520122363
C 2.41120484 -0.7632709052 3.170163728
S 1.7543702553 -1.2885535117 -1.5594788479
C -0.0198693728 -1.6591988757 -1.4432685242
S -1.1033082569 -0.2163927624 -1.6122106023
P -1.9619283875 -0.1625337791 0.3455608451
S -1.718224264 -1.7725057082 1.4260038361
O -3.4578326354 0.2754232844 0.0236812489
C -4.3219857837 -0.3386793366 -0.9505260184
C -4.501647684 -1.8255723597 -0.7272502798
O -1.4413994792 1.1015767883 1.1267490625
C -1.7285146907 2.4692293663 0.7498468061
C -2.8749285651 3.0148785376 1.5749591739
H 5.5263280897 0.8717847306 -2.2970149091
H 4.8488345869 -0.6914932333 -1.8035983921
H 3.7889775526 0.5722877177 -2.4432272303
H 4.1976932495 1.9885369575 -0.4779982199
H 5.3624354192 0.7977415937 0.1769756461
H 0.8396355659 -1.921059722 2.2345381864
H 2.3897382804 -1.9229212024 1.3400763054
H 2.7379913141 -1.5858513904 3.7984877453
H 3.2726586273 -0.1708278809 2.8727543911
H 1.7260159561 -0.1332600775 3.7313444583
H -0.2432229048 -2.1449059685 -0.4878981311
H -0.2241021143 -2.325226933 -2.2784277421
H -5.2643025079 0.1982791496 -0.8279137963
H -3.9115616083 -0.1426288655 -1.9449866775
H -5.2372220672 -2.2061679292 -1.4284904455
H -3.5592283105 -2.3484759701 -0.8820014853
H -4.8378926933 -2.0191850615 0.2885775139
H -0.8000570426 3.0105060145 0.9428454341
H -1.945529734 2.509880204 -0.3205731328
H -3.0269721974 4.0587174953 1.319247522
H -3.7851412803 2.4562103589 1.3727751066
H -2.6404124161 2.9334532296 2.6328766576
*
