! pbe def2-sv(p) def2/J RI DEFGRID1 loosescf d4 GCP(DFT/SV(P)) printgap
%output
    printlevel normal
end
* xyz 0 1
C 3.0914827876 -2.2100911309 2.4247670949
C 1.7627131649 -2.118800435 1.7048689934
O 1.4862523337 -0.7739202018 1.2607478613
P 2.3232238924 -0.0770138368 0.1084321154
S 2.9928322261 -1.2603180269 -1.3102218539
O 3.4402404057 0.68832414 0.937995502
C 4.6261622549 1.2219218058 0.3246678753
C 4.3183842972 2.379738266 -0.6028696659
S 0.953893449 1.4309098356 -0.4539322539
C 0.0790801281 0.4442416459 -1.6995517327
S -0.8744945768 -0.9151485811 -0.9877068446
P -2.6281316803 0.19039561 -0.4265582502
S -2.8195585598 1.9628845683 -1.2261815253
O -2.6821699425 0.0633583395 1.1615437333
C -1.6841457021 0.5422780156 2.0780271513
C -1.6590876333 2.0544228726 2.1727566891
O -3.8260748653 -0.7304942424 -0.8591023768
C -3.952316056 -2.1256562807 -0.4846611386
C -4.8668682617 -2.2803455072 0.7131012837
H 3.1340877876 -1.4796822225 3.2284169383
H 3.2119269641 -3.2082475916 2.8339750509
H 3.9047610512 -2.0137144413 1.7271469745
H 0.9268023207 -2.3544098046 2.3647019281
H 1.7445857206 -2.7801745806 0.8327159734
H 5.2405451582 1.5348444003 1.1698340195
H 5.1255410082 0.4155399716 -0.2222381034
H 3.7557252418 2.02665968 -1.4664331598
H 3.7282746595 3.1326014074 -0.0862353465
H 5.2475815899 2.8223890871 -0.9472168829
H 0.803648948 -0.0056971492 -2.3775440594
H -0.5938763551 1.1264622583 -2.2201431994
H -1.973625434 0.0934405186 3.0303946436
H -0.7059937892 0.1557730398 1.7757291582
H -1.3326785549 2.4923105677 1.2312910835
H -2.6511833655 2.4326949986 2.4054755512
H -0.9667955404 2.3505191064 2.9543738495
H -4.3718148962 -2.6070209994 -1.3698559245
H -2.9564873664 -2.5308775505 -0.2845927643
H -5.8361985041 -1.8394757469 0.49757136
H -4.9930242296 -3.3366625923 0.9291080748
H -4.4423839287 -1.7826498686 1.5805164008
*
