! pbe def2-sv(p) def2/J RI DEFGRID1 loosescf d4 GCP(DFT/SV(P)) printgap
%output
    printlevel normal
end
* xyz 0 1
C 3.443865063 -3.1024130791 0.4246469429
C 2.9142815324 -1.7706428936 0.9306161758
O 2.7132868849 -0.8466149103 -0.1568112865
C 1.609036705 -0.9294993537 -0.8673739441
O 0.7082320231 -1.7191311486 -0.6577901793
C 1.5730227737 0.1039624057 -1.9735850506
C 0.3401926074 0.9995958058 -1.8233117949
H 0.2958691289 1.7035144511 -2.6587174512
C 0.3481809665 1.7770916437 -0.5225249853
O -0.6304617233 1.8310595247 0.2034195901
O 1.4890273697 2.3435025906 -0.2716109471
C 1.6424533463 3.0507785357 0.9812079281
C 3.1174913469 3.3436271628 1.1638887154
S -1.23653259 0.0778554279 -1.8978199791
P -1.6331176169 -0.4186571664 0.1251780038
S -0.5469049017 -0.5574260459 1.7706586027
O -3.0287142818 0.31727419 0.432281186
C -3.2125139357 1.436193156 1.2952278563
O -2.2196521531 -1.8399302943 -0.3235388417
C -2.7596563019 -2.7699666057 0.6158494883
H 3.6523167697 -3.7473143488 1.2717584273
H 2.7019586555 -3.5834225225 -0.2090612778
H 4.3558088883 -2.9499093574 -0.1460381346
H 3.6380392223 -1.2727923089 1.5755283335
H 1.9663448756 -1.8986372543 1.4619410573
H 1.503852237 -0.4187658313 -2.9280066577
H 2.4789853503 0.7074024276 -1.9311890173
H 1.0473986976 3.9665800779 0.9279649349
H 1.2433285221 2.41966347 1.7815857643
H 3.6807914899 2.4157279883 1.1933737503
H 3.4807746619 3.9520637811 0.3416647351
H 3.2609979846 3.8774221031 2.0971590436
H -4.2342305693 1.364150034 1.6610033956
H -3.0623012854 2.3585818035 0.7374561529
H -2.5030683201 1.3902652089 2.123479499
H -2.8107179777 -3.7210829678 0.0918836161
H -3.7523514615 -2.4472904483 0.9306830427
H -2.1037342798 -2.8504893307 1.4857820664
*
