! pbe def2-sv(p) def2/J RI DEFGRID1 loosescf d4 GCP(DFT/SV(P)) printgap
%output
    printlevel normal
end
* xyz 0 1
C 4.9514396099 -2.7806202845 -1.1671663717
C 3.6422084919 -3.328728005 -0.6233228745
O 2.5158455176 -2.7192091313 -1.2889207527
C 2.049213412 -1.5830989539 -0.8270145647
O 2.4812525969 -1.001631361 0.1491037588
C 0.859869506 -1.0968685435 -1.6241802813
C 0.6304534194 0.4000764596 -1.4140287868
H 1.2075815401 1.0053979981 -2.1128525485
C 0.9317988893 0.8453653701 0.0028097913
O 0.2077166932 0.5044152063 0.9266386714
O 1.9098559294 1.697032795 0.0810825624
C 2.2466967195 2.2390601832 1.3778431288
C 1.3439349182 3.4096424992 1.7309453803
S -1.1266688235 0.8307097703 -1.664425508
P -2.0505013262 0.3567688894 0.193953532
S -2.3038058537 1.5965774861 1.7033881012
O -3.4255789964 0.2341158665 -0.6398187431
C -4.698135465 0.0970636466 -0.0068390713
O -1.8539654926 -1.1940136157 0.5727885813
C -1.2595821465 -1.6654081025 1.7792807062
H 5.7792722681 -3.305131416 -0.7016899919
H 4.9977664545 -2.9213528207 -2.2433399813
H 5.0357174474 -1.7196260699 -0.9431103733
H 3.5583695469 -3.1405560212 0.4506365302
H 3.5370085161 -4.3928302019 -0.8339669245
H -0.0078750887 -1.6611108496 -1.267826889
H 0.9906865298 -1.3275416739 -2.6799897755
H 2.1623953801 1.4387735741 2.1172105635
H 3.2849339629 2.5519949739 1.2702855984
H 1.6719603205 3.8420893399 2.6701947528
H 1.3878117989 4.166148408 0.9522466631
H 0.312633922 3.0788132634 1.8429841395
H -4.8520994519 -0.9385930666 0.2949077239
H -5.433772668 0.3927109023 -0.7507928511
H -4.7577136779 0.7503583978 0.8669809549
H -1.4042009825 -0.9374268601 2.5793231472
H -0.1915811815 -1.8234069604 1.6319548829
H -1.762087326 -2.600986623 2.0139513482
*
