  29
        -59.58549290
 C          3.7672960553       -2.1503719798       -0.9399259410
 C          4.3060563276       -0.7834474146       -0.5688228810
 O          3.4631803927       -0.1210819768        0.3914329957
 P          2.0237647179        0.4218110924        0.0291151219
 S          1.8288040689        1.1106144895       -1.7891843250
 O          1.7323981990        1.3601724369        1.2558716538
 C          1.7835228899        2.8010244509        1.1720615876
 C          0.5497235380        3.3757581454        1.8394303441
 O          1.1391609415       -0.9019775334        0.4165260057
 C         -0.1900800411       -0.7926529269        0.2707238825
 C         -1.0176693972       -1.9157153187        0.3609018959
 C         -2.3806378890       -1.7449057345        0.1792927837
 C         -2.8676898305       -0.4705066059       -0.0919536309
 C         -1.9595397192        0.5851407249       -0.1587590107
 N         -0.6625273395        0.4109295294        0.0247365012
 Cl        -2.4661677292        2.1778550491       -0.4926626355
 Cl        -4.5427077374       -0.2052309182       -0.3375160526
 Cl        -0.3324264486       -3.4515835996        0.6856093024
 H          3.6073502277       -2.7472813649       -0.0456949888
 H          2.8184780745       -2.0422249363       -1.4644300475
 H          4.4746836661       -2.6549718954       -1.5904320149
 H          4.3841804160       -0.1484830599       -1.4568833820
 H          5.2738964924       -0.8516879514       -0.0707136733
 H          2.6958013021        3.1166561047        1.6828162224
 H          1.8350884232        3.0937550348        0.1181371882
 H         -0.3431900823        3.0546464690        1.3104014269
 H          0.4899856348        3.0344427942        2.8687075417
 H          0.6059410064        4.4593151793        1.8209512057
 H         -3.0520359056       -2.5864402774        0.2404288992
