! pbe def2-sv(p) def2/J RI DEFGRID1 loosescf d4 GCP(DFT/SV(P)) printgap
%output
    printlevel normal
end
* xyz 0 1
C 1.4747066328 -1.5459874932 -2.7049134871
C 2.595015749 -0.7273514261 -2.0950732879
O 2.0448333405 0.2991390918 -1.2270144247
P 2.157540051 0.2567766121 0.3422116447
S 1.2225776758 1.7288759273 1.2295921231
O 3.7375406406 0.236181477 0.5375039051
C 4.3829521968 0.5729099503 1.7787706412
C 4.0786719948 -0.4195295437 2.8822331711
S 1.5619191635 -1.6934516304 0.9377471124
C -0.1500201436 -1.3344765344 1.4098666078
S -1.3657956123 -1.6039795243 0.0824269621
P -1.9194494077 0.3831623755 -0.4845698466
S -0.8596757965 1.3543766405 -1.8107549451
O -2.0618983476 1.156776473 0.8810647983
C -2.9859992972 0.7775745052 1.9346245705
C -4.2651144479 1.5828337015 1.8389418932
O -3.4323075496 0.1585933418 -0.9304127766
C -3.783480479 -0.1862473858 -2.2802079596
C -3.3153788709 -1.5789445797 -2.6486099329
H 0.9737922874 -2.1441016957 -1.9462529873
H 0.7473271825 -0.8797585655 -3.1636696392
H 1.8863775727 -2.2062304354 -3.4611710511
H 3.1432808697 -0.1757136663 -2.8597495246
H 3.2847707382 -1.3504456876 -1.5206720708
H 5.4432920828 0.5783298851 1.521839211
H 4.0652956085 1.5794673531 2.067794819
H 4.2779938626 -1.4339613494 2.5464049385
H 4.7014636322 -0.1948638649 3.7421490063
H 3.0331476431 -0.3420693959 3.1752318662
H -0.2023520389 -0.2973769486 1.7495746105
H -0.4003100983 -2.0326812635 2.2038615303
H -3.1894610358 -0.294022651 1.8632555486
H -2.4471081665 0.9983652293 2.8584918817
H -4.0367529815 2.6451855913 1.8539964705
H -4.7897306574 1.3496602707 0.9163975521
H -4.8995861004 1.3396277488 2.6855688809
H -4.8712826747 -0.1071868725 -2.297290458
H -3.3438180301 0.5587350045 -2.9511612136
H -3.677319593 -2.3055753852 -1.9258442021
H -3.6855831569 -1.8340053267 -3.6362052977
H -2.2263738383 -1.6095382703 -2.6614603544
*
