  20
        -19.99542751
 C          2.8163197695        0.2167916159        0.1530458182
 C          1.4835336808       -0.3612709976       -0.3095845141
 C          0.3066315573        0.4693934343        0.1987145590
 C         -1.0552379186        0.0107273304       -0.3349194120
 C         -2.1292384326        1.0331299332        0.0358100494
 C         -1.4422683171       -1.3648699398        0.2041077367
 H          3.6430558849       -0.3882013437       -0.2113668399
 H          2.9425681730        1.2312268573       -0.2188453564
 H          2.8621967177        0.2430903641        1.2395013297
 H          1.4597912518       -0.3883080971       -1.4016404109
 H          1.3976713620       -1.3873357728        0.0511978325
 H          0.2905391316        0.4416718156        1.2909881930
 H          0.4641329829        1.5087897206       -0.1009469116
 H         -0.9955390176       -0.0478317807       -1.4280661636
 H         -1.8872046740        2.0118308798       -0.3722936069
 H         -2.2074067159        1.1218797305        1.1173688411
 H         -3.0975875273        0.7288407960       -0.3542921361
 H         -1.4620021219       -1.3517701890        1.2918516866
 H         -2.4307426263       -1.6445743376       -0.1532944111
 H         -0.7380413455       -2.1258007866       -0.1206449954
