! r2scan-3c def2/J RI DEFGRID2 scfconv6 printgap
%output
    printlevel normal
end
* xyz 0 1
C 4.3744046094 2.1271889813 -0.9479615536
C 4.6342271115 0.6434802522 -0.785872005
O 3.4275640439 -0.1332653267 -0.8982699657
P 2.2805856855 -0.0826799398 0.1977282426
S 2.9041160076 0.0316989951 2.0554458498
O 1.4128022207 -1.3535815195 -0.1725952663
C 1.6129097905 -2.6424255194 0.4373194011
C 2.9479566822 -3.2457197205 0.0569442054
S 0.978613336 1.4335475971 -0.4724380241
C 0.0594841534 1.6110929895 1.0801029376
S -0.8897130851 0.1299959326 1.5407328628
P -2.0386520133 -0.1463057037 -0.2248462829
S -1.3500999449 -1.1079007661 -1.7780369562
O -2.4566488389 1.3767247787 -0.4711580674
C -2.8068310454 1.860305819 -1.7827709726
C -4.1920652462 1.3957741674 -2.1828787354
O -3.3075800524 -0.9146821928 0.3347748329
C -4.1418962589 -0.3927985297 1.4003413172
C -5.5641575715 -0.850272517 1.1483406402
H 3.7886576781 2.4969089789 -0.1072704066
H 5.3216341375 2.6560363393 -0.9775738194
H 3.8251367563 2.3158428321 -1.8670633369
H 5.0871797293 0.4369203808 0.1892392316
H 5.2699824961 0.2544745245 -1.5822447879
H 1.5306488171 -2.5252600499 1.5234026136
H 0.7756382425 -3.2357551327 0.0647870616
H 3.0493874335 -3.2741536836 -1.0249829741
H 3.7565745345 -2.6454569311 0.4731211761
H 3.0135335476 -4.2533441414 0.4552307213
H -0.6137383407 2.4544257769 0.9548900793
H 0.7576350357 1.7755389575 1.9016114361
H -2.7488236448 2.9457363527 -1.6923030874
H -2.0577233654 1.5055910715 -2.4973513636
H -4.4414491845 1.8028348509 -3.1575970146
H -4.2092424892 0.3074581878 -2.2391569282
H -4.9284366109 1.7275593798 -1.4553008273
H -3.7543645913 -0.7895864268 2.3412636429
H -4.0662561765 0.6972613424 1.4089782362
H -5.9302900836 -0.4481939648 0.2076692926
H -5.6006415395 -1.9347620354 1.1001419902
H -6.1976942892 -0.5044858688 1.9587758529
*
