! pbe def2-sv(p) def2/J RI DEFGRID1 loosescf d4 GCP(DFT/SV(P)) printgap
%output
    printlevel normal
end
* xyz 0 1
C 2.0813455631 -3.3099429507 0.7274182043
C 3.1820461896 -2.4048538708 0.1987673289
O 2.7235906728 -1.6586278644 -0.9455791238
C 2.1470434435 -0.4947829686 -0.7585484081
O 1.9764574487 0.0400169559 0.3188096039
C 1.7212883402 0.1557625994 -2.0585772203
C 0.4051236495 0.8978579221 -1.8395552811
H 0.1900928684 1.5446860054 -2.6936993702
C 0.4353378765 1.7549351342 -0.5876424245
O -0.4077115472 1.654829007 0.2896667486
O 1.3620048396 2.6663531515 -0.6391275629
C 1.5076456736 3.5787234951 0.4735273135
C 2.502813237 3.0372972982 1.4849849747
S -1.0069309219 -0.2549779853 -1.72023838
P -1.6868748003 -0.3004471625 0.2789447733
S -0.6566534372 -0.7613874294 1.8966605683
O -2.7891535893 0.8521246525 0.3697305275
C -3.8121414892 0.7897408698 1.3734412961
O -2.7225667364 -1.5271399742 0.012210893
C -2.3242929722 -2.8955346825 0.0327480905
H 1.707060595 -3.949822587 -0.0669241585
H 2.4750062206 -3.9244556235 1.5299338446
H 1.2604160267 -2.7122228373 1.121056386
H 4.0276214085 -2.9823961882 -0.1752398045
H 3.5056795554 -1.701542041 0.9710463156
H 1.6164363443 -0.5960306423 -2.8385599943
H 2.4945282971 0.873268354 -2.3423819938
H 1.8621435638 4.5027081494 0.0157934395
H 0.5267732849 3.7264939943 0.9328653996
H 2.1677027265 2.0692969018 1.8527174384
H 3.4791774455 2.9140287314 1.0255646555
H 2.5796308419 3.7271340508 2.3187167395
H -3.3739009106 0.5592512885 2.3464278562
H -4.5444346163 0.0282547677 1.1073814522
H -4.2648012346 1.7781595381 1.3842244571
H -3.2386555663 -3.4703253745 0.1577535193
H -1.6464688646 -3.0734500441 0.8708976355
H -1.83433095 -3.1543502738 -0.9058826417
*
