! pbe def2-sv(p) def2/J RI DEFGRID1 loosescf d4 GCP(DFT/SV(P)) printgap
%output
    printlevel normal
end
* xyz 0 1
C 3.6032291999 1.7893079984 -1.8470825387
C 2.3428360354 1.0101254994 -2.1540565868
O 2.2618076386 -0.2122582435 -1.3940294508
P 2.1603238815 -0.2494637302 0.1837313991
S 1.0947728721 1.1756933981 1.0245808417
O 3.6829250816 -0.250132569 0.6321389141
C 4.0909652064 0.0113978317 1.9858375943
C 3.6422991721 -1.0804866799 2.9353630728
S 1.6046790035 -2.2684487644 0.4202742649
C -0.1165855375 -2.1967374568 -0.1350334391
S -1.2313499667 -1.4113960011 1.0860565499
P -2.1273897862 0.0238490331 -0.1636834268
S -1.1884058378 0.5703683903 -1.8015345831
O -2.5996209791 1.217062542 0.7675672565
C -1.9597236846 2.4988568155 0.892767806
C -3.0374438717 3.5602029247 0.9819642129
O -3.4932085716 -0.7504433395 -0.3879385193
C -4.5505007756 -0.2170807789 -1.2169965862
C -4.5114286333 -0.8436979474 -2.5969967704
H 3.6717596482 2.6382219441 -2.5200622627
H 3.5737179173 2.152544678 -0.8203878317
H 4.4759411752 1.1535669561 -1.9716234278
H 2.3131617908 0.6698140019 -3.1899958308
H 1.4498429743 1.6078514289 -1.9454761164
H 5.1781764101 0.0725214068 1.9240163257
H 3.6783367002 0.9786993583 2.2907280835
H 2.5553827629 -1.0805261888 3.0150497907
H 3.9642726078 -2.0530576029 2.5717738715
H 4.066913226 -0.9011577124 3.9178969305
H -0.4292695387 -3.2291813923 -0.2633401412
H -0.1755192658 -1.6408433407 -1.0739440655
H -1.3402672724 2.4742394645 1.7922244117
H -1.3090330383 2.6587336177 0.0266130213
H -3.6149527764 3.5904483672 0.0615171961
H -3.703158634 3.3406563779 1.8115771388
H -2.5683347511 4.5253858906 1.1411269019
H -5.4703718706 -0.4720123572 -0.688208009
H -4.4518572916 0.8703744943 -1.273855075
H -3.5867906205 -0.5782527722 -3.1053314073
H -4.5683726832 -1.9253725318 -2.5149608343
H -5.3525914857 -0.4811323357 -3.1791230117
*
