  27
        -40.74346106
 C          2.8390970795        1.4359196717       -0.0670677634
 O          1.4381995893        1.2813534985        0.1726392885
 C          0.9190913994        0.0175392344       -0.0805534177
 C         -0.5985251320        0.1052390858        0.0076462998
 C         -1.3457087326       -1.0165456231        0.3454372958
 C         -2.7279448327       -0.9458948151        0.3728141279
 C         -3.3691638239        0.2402236683        0.0588107722
 C         -2.6250541197        1.3565678626       -0.2855456381
 C         -1.2429779296        1.2911082930       -0.3161248677
 O          1.3406037657       -0.3542351539       -1.3691969663
 C          0.9285750415       -1.6307443268       -1.8404041728
 O          1.4564321288       -0.9439721979        0.8102146911
 C          1.2898997189       -0.6493118118        2.1917254240
 H          3.0341210881        1.4762415340       -1.1392721325
 H          3.3962117040        0.6076236557        0.3742745058
 H          3.1036094323        2.3759305992        0.4092552672
 H         -0.8408030786       -1.9399827976        0.5883988725
 H         -3.3008452952       -1.8209483451        0.6377627329
 H         -4.4466120315        0.2940890606        0.0803073374
 H         -3.1197933708        2.2824615920       -0.5346054419
 H         -0.6511575754        2.1518683610       -0.5831405840
 H          1.4247316377       -1.7405052623       -2.8007721180
 H         -0.1561688729       -1.6667275036       -1.9688328129
 H          1.2524433124       -2.4147043647       -1.1542888210
 H          0.2315962344       -0.6399670379        2.4633599850
 H          1.7319776138        0.3181147215        2.4386145797
 H          1.8098520143       -1.4482014668        2.7130433457
  27
        -40.74332716
 C          1.2595340037        1.8887723310        1.2493305147
 O          1.6134984280        1.1460899338        0.0858966429
 C          0.9426588044       -0.0803962451       -0.0587544124
 C         -0.5683728001        0.0956487279       -0.0214684481
 C         -1.3712197918       -0.5662477171        0.8945913205
 C         -2.7412269562       -0.3627167981        0.8777562857
 C         -3.3084654211        0.4965710430       -0.0478083682
 C         -2.5049982690        1.1576653140       -0.9631464323
 C         -1.1365552660        0.9586323355       -0.9513023919
 O          1.3857157006       -0.5125856445       -1.3206033612
 C          0.7696557166       -1.7067044145       -1.7949022944
 O          1.3104902427       -0.9833282672        0.9464916064
 C          2.7084483082       -1.2546518599        1.0435038722
 H          1.3103726436        1.2597388579        2.1410168994
 H          0.2527316040        2.3027599231        1.1531748271
 H          1.9931207337        2.6879461548        1.3054051954
 H         -0.9171228751       -1.2326893434        1.6101019795
 H         -3.3643812011       -0.8786980304        1.5914279986
 H         -4.3761576893        0.6520571675       -0.0571357180
 H         -2.9417511343        1.8284119168       -1.6865927856
 H         -0.4892465970        1.4626046699       -1.6546291937
 H          0.8073173234       -2.4904772082       -1.0348784813
 H          1.3503860415       -1.9941472599       -2.6667227196
 H         -0.2702964206       -1.5212323860       -2.0748592831
 H          3.0821755942       -1.6828471027        0.1116270804
 H          2.7996098062       -1.9665497700        1.8586133469
 H          3.2627678132       -0.3405507203        1.2639204598
  27
        -40.74154430
 C          2.4467412412        1.7799325793       -0.0028632981
 O          1.3099637249        1.1875637568        0.6246778437
 C          0.8286926510       -0.0414898582        0.1480943352
 C         -0.6887388054        0.0707624884        0.0630731231
 C         -1.5338150542       -0.7312348387        0.8141767131
 C         -2.9058569732       -0.5808018703        0.7000990753
 C         -3.4360260126        0.3648721251       -0.1607132739
 C         -2.5912883172        1.1661645480       -0.9112847745
 C         -1.2205567563        1.0209726893       -0.7997577946
 O          1.4105427870       -0.2807619341       -1.1104321162
 C          0.9256200439       -1.4332326718       -1.7877629729
 O          1.1326407202       -1.0802253470        1.0395403225
 C          2.5048520166       -1.2326014538        1.3923742572
 H          3.3096274776        1.1136062817        0.0022111054
 H          2.6448588988        2.6647884152        0.5963973697
 H          2.2155829898        2.0606970385       -1.0317561433
 H         -1.1093102539       -1.4632720007        1.4816698850
 H         -3.5599257195       -1.2062757808        1.2875792814
 H         -4.5056201667        0.4786864262       -0.2466272889
 H         -2.9977191076        1.9057014477       -1.5836317822
 H         -0.5512002980        1.6390489682       -1.3794369172
 H         -0.1054474241       -1.2825730185       -2.1165074764
 H          0.9756496947       -2.3102263971       -1.1388002503
 H          1.5839079286       -1.5542787581       -2.6435335563
 H          3.1253528858       -1.3331275437        0.4983857597
 H          2.5429105062       -2.1449605387        1.9813453448
 H          2.8395495792       -0.3831427395        1.9914059308
  27
        -40.74104051
 C          2.6105823712        1.5349955695       -0.5955758555
 O          1.3134127715        1.3118413664       -0.0341123961
 C          0.8270742584        0.0088659434        0.1209993478
 C         -0.6897942196        0.1268443770        0.0203575749
 C         -1.2232059760        0.5945569153       -1.1739895052
 C         -2.5926025768        0.7241174568       -1.3171717638
 C         -3.4334778341        0.3901129348       -0.2681333956
 C         -2.9009206780       -0.0736106664        0.9225393749
 C         -1.5302979204       -0.2074583992        1.0703841671
 O          1.3625990247       -0.7901521543       -0.9082951538
 C          0.8122581190       -2.0983120367       -1.0027377379
 O          1.1255929722       -0.5405247042        1.3753643488
 C          2.5012297482       -0.7080272020        1.7110307235
 H          3.3974972500        1.3858388598        0.1452505463
 H          2.5882095897        2.5764654064       -0.9080142329
 H          2.7773162964        0.8867749660       -1.4546744885
 H         -0.5543347460        0.8519734038       -1.9816704673
 H         -3.0011502847        1.0868712426       -2.2476083902
 H         -4.5019069996        0.4926639057       -0.3790616421
 H         -3.5518278762       -0.3332071542        1.7428609043
 H         -1.1045316909       -0.5665969213        1.9930292049
 H          0.8367372965       -2.5968462210       -0.0314496704
 H          1.4462996254       -2.6201815376       -1.7142841461
 H         -0.2173507061       -2.0586147137       -1.3657264033
 H          3.0699229615       -1.0640258771        0.8498976801
 H          2.5132114792       -1.4540867524        2.5025795920
 H          2.9179132288        0.2312320655        2.0810880967
  27
        -40.73477415
 C          2.5604741559        1.5353137977        0.2732411278
 O          1.3446942769        1.1471773922       -0.3591239043
 C          0.7432174860       -0.0689732042       -0.0035592685
 C         -0.7693084288        0.1371968066        0.0468871641
 C         -1.5590749885       -0.7933330594        0.7065201961
 C         -2.9346250869       -0.6447063022        0.7240667267
 C         -3.5263200639        0.4285258247        0.0794161635
 C         -2.7381503603        1.3527278494       -0.5849393906
 C         -1.3616247353        1.2079107136       -0.6055654748
 O          0.9477925980       -1.0597735176       -0.9882872096
 C          2.0626496095       -0.9464769852       -1.8680832466
 O          1.1510409836       -0.5029232295        1.2677157595
 C          2.1373924002       -1.5265081565        1.3743816919
 H          3.4049092702        0.9335932323       -0.0722728901
 H          2.4686532056        1.4680172700        1.3583425083
 H          2.6996556763        2.5708308597       -0.0262252716
 H         -1.0889254274       -1.6247082748        1.2076418060
 H         -3.5432410405       -1.3700089207        1.2416520423
 H         -4.5992302486        0.5434508338        0.0938183595
 H         -3.1932824311        2.1898742915       -1.0913449969
 H         -0.7381236230        1.9226432749       -1.1186085135
 H          1.8852972969       -1.7073613053       -2.6235241402
 H          3.0057517991       -1.1459352398       -1.3530689387
 H          2.0889975765        0.0416040706       -2.3301569243
 H          3.1300879331       -1.1623980243        1.0987754752
 H          1.8684355205       -2.3857359582        0.7575694789
 H          2.1251523979       -1.8013643730        2.4259341561
