  27
        -40.74346106
 C          2.8390970795        1.4359196717       -0.0670677634
 O          1.4381995893        1.2813534985        0.1726392885
 C          0.9190913994        0.0175392344       -0.0805534177
 C         -0.5985251320        0.1052390858        0.0076462998
 C         -1.3457087326       -1.0165456231        0.3454372958
 C         -2.7279448327       -0.9458948151        0.3728141279
 C         -3.3691638239        0.2402236683        0.0588107722
 C         -2.6250541197        1.3565678626       -0.2855456381
 C         -1.2429779296        1.2911082930       -0.3161248677
 O          1.3406037657       -0.3542351539       -1.3691969663
 C          0.9285750415       -1.6307443268       -1.8404041728
 O          1.4564321288       -0.9439721979        0.8102146911
 C          1.2898997189       -0.6493118118        2.1917254240
 H          3.0341210881        1.4762415340       -1.1392721325
 H          3.3962117040        0.6076236557        0.3742745058
 H          3.1036094323        2.3759305992        0.4092552672
 H         -0.8408030786       -1.9399827976        0.5883988725
 H         -3.3008452952       -1.8209483451        0.6377627329
 H         -4.4466120315        0.2940890606        0.0803073374
 H         -3.1197933708        2.2824615920       -0.5346054419
 H         -0.6511575754        2.1518683610       -0.5831405840
 H          1.4247316377       -1.7405052623       -2.8007721180
 H         -0.1561688729       -1.6667275036       -1.9688328129
 H          1.2524433124       -2.4147043647       -1.1542888210
 H          0.2315962344       -0.6399670379        2.4633599850
 H          1.7319776138        0.3181147215        2.4386145797
 H          1.8098520143       -1.4482014668        2.7130433457
