! pbe def2-sv(p) def2/J RI DEFGRID1 loosescf d4 GCP(DFT/SV(P)) printgap
%output
    printlevel normal
end
* xyz 0 1
C 4.1989447697 0.078652675 -2.400827584
C 2.800794694 -0.4584850027 -2.1770633992
O 2.0780730999 0.3579298825 -1.2235525376
P 2.0023974196 0.0940502422 0.3275399664
S 0.9377605626 1.4609038459 1.2347805196
O 3.5297079251 0.0571158095 0.7712813342
C 3.9383493432 0.2185773111 2.1412563423
C 3.4856161691 -0.9337976589 3.0139593814
S 1.4367208829 -1.9461038072 0.5209165301
C -0.2014827088 -1.908861609 -0.2542320333
S -1.4753075993 -1.0937258937 0.7554178368
P -2.0348295488 0.5106975307 -0.5336420213
S -1.0022654364 0.6553579625 -2.1908575046
O -2.0203804381 1.8459823402 0.2969570051
C -2.9732278524 2.2256870051 1.3184543675
C -2.9555797817 1.2845905905 2.5034059967
O -3.6039353658 0.3130267798 -0.7538365344
C -4.159396022 -0.5036960348 -1.7978977155
C -3.8329172812 -1.9734469528 -1.6274538905
H 4.7810497702 0.0069348512 -1.4859232554
H 4.6795971005 -0.5038083871 -3.1806093257
H 4.1524973543 1.1201850633 -2.7075947108
H 2.82931165 -1.4894650204 -1.8128386365
H 2.1963963579 -0.3989385878 -3.0851773148
H 5.0260120425 0.2786861758 2.0825505007
H 3.5319569262 1.1650587116 2.5114662059
H 3.925304985 -0.8300120281 4.000634094
H 2.4007223174 -0.9234925863 3.1092895412
H 3.7910616311 -1.8819527923 2.5785480018
H -0.4835434282 -2.9517887329 -0.3730598349
H -0.1440789296 -1.3919936803 -1.2172717799
H -2.6428107952 3.2271572032 1.5987568756
H -3.963779147 2.269100545 0.8606841929
H -1.9411684389 1.1870102001 2.8845057336
H -3.5950591978 1.6838839348 3.2842938879
H -3.3202084873 0.3002247255 2.2130549209
H -5.2321540126 -0.3190662005 -1.7237241236
H -3.7838235237 -0.1358199405 -2.7578271759
H -2.7706448134 -2.1392032787 -1.7988012624
H -4.0878743193 -2.3058843273 -0.6245305304
H -4.3985915768 -2.5488414557 -2.3532144214
*
