! pbe def2-sv(p) def2/J RI DEFGRID1 loosescf d4 GCP(DFT/SV(P)) printgap
%output
    printlevel normal
end
* xyz 0 1
C 3.1117276666 -3.9325709791 0.1454829314
C 2.7167623197 -2.5309424706 0.5653615447
O 2.2086498046 -1.8458257728 -0.5953785803
C 2.0403744434 -0.5474994751 -0.5341125344
O 2.2733250443 0.1401552717 0.4417932737
C 1.5588968973 0.0320570491 -1.8513793633
C 0.3395665758 0.9366326271 -1.6444304452
H 0.2423787267 1.6261341809 -2.4860613299
C 0.4567588654 1.7322483997 -0.3585049108
O -0.280568083 1.5423275386 0.5946921918
O 1.3676604672 2.6544542288 -0.4296815004
C 1.6497258874 3.4253160387 0.7584935241
C 2.5618136401 4.5690707905 0.3643286003
S -1.2244504959 0.004177571 -1.613924705
P -1.7132837271 -0.4019640638 0.4225377727
S -0.4596155582 -1.1955621911 1.70515653
O -2.6725963613 0.7255717906 0.9915833107
C -3.8970277505 1.1005449289 0.3329729355
O -2.8574661563 -1.4901486398 0.0630403339
C -2.5365648226 -2.8183793143 -0.3495587298
H 2.2482207615 -4.4555582538 -0.2534967907
H 3.8843276491 -3.891128208 -0.6165763023
H 3.4867464918 -4.4695134622 1.0100708083
H 3.5655717022 -1.9610251484 0.9561316747
H 1.9283123445 -2.5350347835 1.3257013084
H 1.3206852285 -0.7729492115 -2.5450503323
H 2.375975057 0.6359897139 -2.2520426994
H 0.7012178327 3.7747823082 1.1778544007
H 2.1206518906 2.7485186027 1.4784430576
H 3.4805856399 4.1791038658 -0.0623635467
H 2.0719627304 5.2038818605 -0.3678622684
H 2.7975639334 5.1547804701 1.2463795718
H -4.2109114211 2.0179752654 0.8246149115
H -4.6391890822 0.3149329679 0.4629188448
H -3.7196021116 1.2714605791 -0.7291763633
H -3.4524521405 -3.3924235965 -0.2339572075
H -1.7489287976 -3.2257559673 0.287588746
H -2.2124997219 -2.8162416081 -1.3901752522
*
