! r2scan-3c def2/J RI DEFGRID2 scfconv6 printgap
%output
    printlevel normal
end
%cpcm
    smd true
    smdsolvent "water"
end
* xyz 0 1
C 4.5399500175 -0.9870725214 -2.3491355437
C 3.8342091695 -1.9779563535 -1.4477310363
O 3.416977082 -1.3961308669 -0.1977150074
P 2.5052966595 -0.1039668057 -0.0401243873
S 3.3057273377 1.6600320917 -0.3086412176
O 2.031399625 -0.2418234346 1.4549463709
C 1.4420827075 -1.4502374165 1.9984169333
C 0.5430160404 -1.0553252269 3.1515386575
S 0.8322405191 -0.5535565093 -1.2915539929
C 0.1312936756 1.1082766289 -1.2510556839
S -0.5978959493 1.5269937037 0.3556978944
P -2.3351168142 0.3561452355 0.1131736099
S -3.1970700305 0.3883546455 -1.6527995065
O -3.2858694162 0.7601118856 1.3226280371
C -4.263701671 1.8094177001 1.2190195851
C -3.6201905434 3.1747188064 1.0889894972
O -1.7994057724 -1.0536432083 0.5923470048
C -2.5329263118 -2.2757947614 0.3367680702
C -1.542435974 -3.3916645774 0.0742449489
H 5.3747345418 -0.5261481256 -1.8265157339
H 4.9067938906 -1.5002504228 -3.2321717208
H 3.8519337998 -0.2003924149 -2.655481649
H 4.5009333559 -2.7863658173 -1.1426988269
H 2.9507646097 -2.3899385848 -1.9431241308
H 0.8782369312 -1.9516111872 1.2065393943
H 2.2608441647 -2.0933257554 2.3262997332
H 1.1044096482 -0.4721005943 3.8758026385
H -0.2904159099 -0.4559558515 2.7922328167
H 0.1589608567 -1.9512795957 3.6287911344
H -0.6391404358 1.151784585 -2.0215389357
H 0.924388307 1.8347199656 -1.4337975747
H -4.9023661769 1.6015290363 0.3545624915
H -4.8420359076 1.7211062925 2.139557319
H -4.3879352667 3.9407160087 1.1290726265
H -2.9065598149 3.3354284055 1.8933843804
H -3.0959196128 3.2504568151 0.1368814119
H -3.145287396 -2.4786049849 1.2176346222
H -3.1848345324 -2.1171435096 -0.5291052528
H -0.920444896 -3.5574808644 0.9490850421
H -2.0891035375 -4.3013354535 -0.152461947
H -0.9097483543 -3.1352878929 -0.7722482335
*
