! pbe def2-sv(p) def2/J RI DEFGRID1 loosescf d4 GCP(DFT/SV(P)) printgap
%output
    printlevel normal
end
* xyz 0 1
C 4.2606829417 -3.8134383129 -1.3708712909
C 4.025269756 -2.5407858258 -0.5794085228
O 3.2492351879 -1.6374826502 -1.3930833378
C 2.3834723947 -0.8399160138 -0.8193487767
O 2.1782841128 -0.7811661935 0.3782560314
C 1.6589608021 0.0353767788 -1.8201652606
C 0.3658843861 0.5365460585 -1.19315232
H -0.0961024593 1.31513111 -1.8062158384
C 0.6053094094 1.1029675942 0.1929838422
O -0.1144903332 0.8293489871 1.1378502049
O 1.5575982522 1.9926868284 0.2032713518
C 1.8767107352 2.6534244853 1.4475446349
C 3.0073576316 1.9284482071 2.1579292928
S -0.8331128426 -0.8355828659 -1.0251549447
P -2.2765078543 0.0624616686 0.2404201377
S -2.6037883066 1.9980603365 0.0794486412
O -3.5548962845 -0.7699249058 -0.2691370983
C -4.0993062413 -0.5687250021 -1.5750575734
O -2.313147973 -0.6293861732 1.6686425069
C -2.0106082392 -0.0083114061 2.9176221423
H 4.876497237 -4.489521151 -0.7870950698
H 3.3148101108 -4.2974779349 -1.5964963461
H 4.7667471961 -3.5803156041 -2.3025838636
H 4.9683537816 -2.040015858 -0.3439694036
H 3.4793589065 -2.7302256706 0.3494924926
H 1.4626219478 -0.5287817077 -2.7304766618
H 2.3013214473 0.8858549085 -2.058332661
H 2.1676268134 3.6620244977 1.1523770603
H 0.975395796 2.6838634394 2.0653819402
H 3.9111657717 1.9601050954 1.5564680697
H 3.1943160876 2.4034582299 3.1150910318
H 2.7336151063 0.8879822381 2.320540556
H -5.0574366334 -1.0820268801 -1.5736652823
H -3.4369308982 -0.9942626922 -2.3295350629
H -4.2398982213 0.4982250827 -1.7611943413
H -0.9833197381 -0.2377872081 3.195414687
H -2.7122610508 -0.4292339398 3.6348731454
H -2.1391077797 1.0729281538 2.8476550197
*
