! pbe def2-sv(p) def2/J RI DEFGRID1 loosescf d4 GCP(DFT/SV(P)) printgap
%output
    printlevel normal
end
* xyz 0 1
C 2.3344843312 1.5173186993 -2.4635530455
C 2.4744657016 0.2613035655 -1.6315765647
O 2.3087131067 0.641040335 -0.2402840272
P 2.1406675757 -0.3937502027 0.9329276009
S 2.2788933041 0.4514994964 2.6894883911
O 3.2513316405 -1.4754267624 0.5877513268
C 3.5100277162 -2.583990879 1.476848888
C 4.8375294619 -3.1965150754 1.0804814071
S 0.3342914376 -1.4711268445 0.6020931682
C -0.7429764557 -0.3513573994 1.533382355
S -0.9139772287 1.2851393653 0.7760839837
P -1.9519480266 0.7348750149 -0.9999651836
S -1.0257473003 -0.1310869826 -2.4852826104
O -2.5056883469 2.1303571064 -1.4990218136
C -3.038654507 3.2047261029 -0.690858424
C -4.2594959431 2.7874596298 0.100829284
O -3.1913153349 -0.092624587 -0.4253127886
C -3.6365038594 -1.3569701398 -0.9545490542
C -3.1878460543 -2.5112953863 -0.0807801024
H 1.3314821998 1.9248056602 -2.3589930055
H 3.0544015525 2.2635253756 -2.1400475865
H 2.5043778686 1.2703527141 -3.5063897709
H 3.4615464309 -0.1901678277 -1.7405268705
H 1.7060806309 -0.4724500771 -1.8934939166
H 3.5305109092 -2.206351086 2.5043227058
H 2.6911079082 -3.3008238178 1.3733467424
H 5.0484347902 -4.0381641562 1.7318477925
H 4.7961995783 -3.5393902295 0.0506904452
H 5.6314835743 -2.461102259 1.1760687203
H -0.3049720413 -0.1741076567 2.5167253926
H -1.7166461015 -0.8274042562 1.6097948505
H -2.2460046354 3.5638581567 -0.0296083875
H -3.2793660358 3.9735125274 -1.4271930084
H -3.9913279564 2.0343562654 0.8383602543
H -4.6630104979 3.6560626667 0.6120757707
H -5.0164094204 2.3786253499 -0.5634878331
H -4.7246149772 -1.2787196761 -0.9793756881
H -3.2514212209 -1.4717653425 -1.9725396812
H -3.5391398952 -2.3768579054 0.9388930007
H -3.6032539232 -3.4319711153 -0.4777446196
H -2.1012661511 -2.5902245614 -0.0831732598
*
