! r2scan-3c def2/J RI DEFGRID2 scfconv6 printgap
%output
    printlevel normal
end
* xyz 0 1
C 5.7271458407 -2.8652932278 -1.0821925982
C 4.7999306037 -1.6944039883 -1.3441045279
O 3.4697236075 -2.0759880472 -0.9439591965
C 2.4600947532 -1.3540085002 -1.3770297058
O 2.5619275493 -0.4089922308 -2.130767296
C 1.1342658429 -1.8769973007 -0.8514285842
C 0.2980973922 -0.6898896245 -0.3967577099
H 0.1407528793 0.0012837708 -1.2381168161
C 1.0225509621 0.1086314335 0.6698802124
O 2.2257505236 0.0970932016 0.7961453001
O 0.1889808461 0.8093238546 1.4087612285
C 0.7305944146 1.7132369112 2.3940906586
C 1.0393668923 3.0631646361 1.7707076497
S -1.3429598617 -1.2148818884 0.1871799359
P -2.3146469278 0.6832464548 0.1381484033
S -1.54886876 2.0374774997 -1.0507030591
O -3.8155041871 0.2610629269 -0.2317739094
C -4.150988582 -0.2301537732 -1.5334506835
O -2.5304802038 1.1866695579 1.6182882868
C -3.1775474316 0.3693192912 2.6145488898
H 6.7395738933 -2.5879740361 -1.3558665672
H 5.6987188457 -3.1299050377 -0.0296730358
H 5.4191676111 -3.7251386864 -1.6695742777
H 4.7766977085 -1.4142622302 -2.4020354835
H 5.0813216812 -0.8136903107 -0.758392014
H 1.3236522676 -2.5677463961 -0.0309774452
H 0.618136895 -2.3999588332 -1.6574943532
H -0.0530663503 1.7937445038 3.1472321963
H 1.6315126148 1.2580865191 2.8144457101
H 1.3692095578 3.75030865 2.5424626153
H 1.8234748475 2.9623205756 1.0229246181
H 0.1499670385 3.4621284088 1.2879374772
H -5.2371500398 -0.230693287 -1.575612755
H -3.760552725 -1.2397433236 -1.6602736901
H -3.7410884032 0.4279685242 -2.3013093322
H -2.6496401035 -0.5787126489 2.7179208032
H -4.2130319322 0.1903571933 2.3325379867
H -3.1230266306 0.9452443953 3.5346750868
*
