! pbe def2-sv(p) def2/J RI DEFGRID1 loosescf d4 GCP(DFT/SV(P)) printgap
%output
    printlevel normal
end
* xyz 0 1
C 4.0169731197 -3.0490710493 -2.5328136649
C 3.0099153416 -3.163556074 -1.4054376281
O 2.7022670034 -1.8334615585 -0.9442192814
C 2.0559436564 -1.7074943075 0.1952847538
O 1.7194991538 -2.6347026611 0.8975637525
C 1.7695360935 -0.2515972365 0.5178441678
C 0.9737395111 0.3836536772 -0.6232052848
H 1.5972567629 0.4553975093 -1.5181075691
C 0.4554313343 1.7570665678 -0.2459941953
O -0.7295361208 2.0303967354 -0.2537855227
O 1.4086414012 2.5767975632 0.0840665763
C 1.033266868 3.9037460481 0.5209999566
C 2.3023279051 4.6542054147 0.8686972468
S -0.4524627444 -0.6300790526 -1.1301187427
P -1.8537036724 -0.1978374559 0.4263888184
S -1.3292485216 0.4790931157 2.1890346818
O -3.1350591709 0.4571722782 -0.2669237347
C -3.484015034 1.8393361966 -0.3393007481
O -2.4326776014 -1.6628938983 0.6697031253
C -3.0055324059 -2.4736769949 -0.3679754296
H 4.9223943332 -2.5660157101 -2.1779419219
H 4.2605940096 -4.0416891522 -2.8963033105
H 3.5995383047 -2.4625849525 -3.3452690748
H 3.3999618941 -3.7411048197 -0.5616290201
H 2.0773560956 -3.6274543242 -1.7406401192
H 2.7100458926 0.2880105446 0.6357274513
H 1.2089168268 -0.2152175906 1.4544573116
H 0.4811998174 4.3869104729 -0.2901671135
H 0.3671432573 3.7990608515 1.3828292288
H 2.0452373609 5.6588929034 1.1867818523
H 2.8266150679 4.1491471651 1.6739990579
H 2.9537612352 4.707893641 0.0018902028
H -3.0106260208 2.2933236389 -1.2074370568
H -3.1649333252 2.3576433372 0.564514915
H -4.567900398 1.858607241 -0.4306034063
H -3.9270463822 -2.0189828048 -0.7270542217
H -3.2031205372 -3.4352900848 0.0989151539
H -2.2974370019 -2.5854723466 -1.1899192185
*
