! r2scan-3c def2/J RI DEFGRID2 scfconv6 printgap
%output
    printlevel normal
end
* xyz 0 1
C 6.0294232501 -1.1996885735 0.2563800257
C 4.5889059961 -1.4240662403 -0.1557210587
O 3.8818025143 -0.1763224325 0.0094361383
P 2.4659905549 0.0568663668 -0.669610319
S 2.3721757822 -0.2618228125 -2.5961825762
O 2.129592939 1.546914668 -0.2985289402
C 2.1606322432 2.0696920736 1.0535829632
C 3.4801271999 2.7589798225 1.3308279234
S 1.1834980525 -1.1793777386 0.5059199224
C -0.212396614 -1.1380914955 -0.6374064677
S -1.0125472381 0.4994724347 -0.6971733761
P -2.7982705911 -0.0141607725 0.3555417771
S -3.9683615455 1.507985986 0.7314709152
O -2.3605672725 -0.8921528426 1.5961228451
C -2.2370446788 -0.3209406905 2.9117118549
C -0.971448389 0.5015105653 3.045414005
O -3.3803126081 -1.223075361 -0.4977979577
C -3.9311782258 -1.0079745779 -1.8112978883
C -5.4311470215 -0.79717305 -1.7416159737
H 6.0751518748 -0.8785805272 1.2929030286
H 6.5797354362 -2.1279837735 0.1439249161
H 6.4828100785 -0.4371096676 -0.3707188622
H 4.1043386954 -2.175232691 0.4735568692
H 4.5134155627 -1.730353637 -1.2041428414
H 1.325422264 2.771778282 1.091154303
H 1.9880219716 1.2495935229 1.7558950091
H 4.2965604748 2.0439819001 1.2760086924
H 3.6513793945 3.5434977625 0.5989042389
H 3.4493736843 3.1956170741 2.3241438395
H -0.9311177526 -1.8818704462 -0.30150632
H 0.1565447754 -1.353847145 -1.6408747601
H -3.1206899654 0.2945568811 3.1096026726
H -2.2285636202 -1.186118803 3.5755915545
H -0.1020377626 -0.109630253 2.8154001793
H -1.0091820029 1.3463177905 2.3575872948
H -0.8912374065 0.8768108502 4.0603335919
H -3.4362394484 -0.1488372991 -2.277944125
H -3.6852192359 -1.9143199012 -2.3686304728
H -5.9019133193 -1.6416037318 -1.2463679237
H -5.6591667095 0.1078143785 -1.1826691223
H -5.8268601843 -0.7017979144 -2.747652157
*
