! pbe def2-sv(p) def2/J RI DEFGRID1 loosescf d4 GCP(DFT/SV(P)) printgap
%output
    printlevel normal
end
* xyz 0 1
C 3.3874547155 -3.0807332254 0.5834394259
C 2.9469187095 -1.6813827543 0.9804538763
O 2.7278919193 -0.8599328013 -0.1839913406
C 1.5827549745 -0.9464913541 -0.8176200585
O 0.6549864973 -1.6620442013 -0.4825247991
C 1.5183280069 -0.027301422 -2.017662256
C 0.3050577601 0.8999690558 -1.9007501327
H 0.2133781864 1.4990734331 -2.8110793756
C 0.4059225874 1.835981689 -0.7081662578
O -0.5149608751 2.0085821096 0.0654097787
O 1.5761821135 2.409438126 -0.6367104758
C 1.867962106 3.2610555064 0.4932216176
C 2.4901394523 2.4466878925 1.6151946281
S -1.2762332961 -0.000560891 -1.7886170301
P -1.5200099143 -0.3685712998 0.286124599
S -0.3974697734 -0.204493518 1.8880925703
O -2.8808634438 0.5033219689 0.3806183386
C -3.5155273282 0.7429274736 1.635821294
O -2.0567816039 -1.8795276579 0.3254292891
C -2.8979156442 -2.4329549994 -0.6949557089
H 4.2700603295 -3.0305090577 -0.048299306
H 3.6173694296 -3.647889997 1.479153539
H 2.5890551572 -3.5854476695 0.0439954566
H 3.7265590769 -1.158972341 1.534322536
H 2.0250961413 -1.7089487701 1.5690016768
H 1.4009036264 -0.6395904353 -2.9127393915
H 2.4335659528 0.5606164799 -2.0742380594
H 2.5654146925 4.0005487727 0.0998346659
H 0.9418940486 3.7384589209 0.8230416125
H 2.7550379028 3.1068247303 2.4340345908
H 1.7823883203 1.7027058027 1.9797294033
H 3.3812720577 1.9381141063 1.2580305396
H -3.7759820129 -0.1997291873 2.1210160873
H -4.408165843 1.3184499374 1.4045923995
H -2.8490777085 1.311846149 2.2858019599
H -3.417717484 -3.2646145116 -0.2249505236
H -2.2784358413 -2.7848610335 -1.51903524
H -3.6087637455 -1.6873732194 -1.0548011948
*
