  12
        -28.03474968
 C         -1.2797658126       -0.5620045612       -0.0000800650
 C         -1.1074314442        0.8132694665       -0.0001334949
 C          0.1532147380        1.3893704632       -0.0003083705
 C          1.2580479889        0.5524065328       -0.0001715633
 C          1.1266498808       -0.8273539373       -0.0000520414
 C         -0.1505450969       -1.3656403270       -0.0000773188
 Cl        -0.3399827420       -3.0830553987        0.0000600791
 Cl         2.8400922827        1.2471258106        0.0001112295
 Cl        -2.5001706997        1.8359142263        0.0001125977
 H         -2.2657944301       -0.9950411145       -0.0000699439
 H          0.2712970641        2.4598320406       -0.0001646603
 H          1.9946197867       -1.4648182416        0.0000538103
