  38
        -55.81879088
 C          2.0004532101       -0.1289066818        3.1148097646
 C          1.9356547407        0.4446800254        1.6973687036
 C          1.5014664057       -0.5930648772        0.6980132502
 C          2.3564408217       -1.6516484726        0.4173526943
 C          1.9985220410       -2.6365173528       -0.4827255290
 C          0.7722411720       -2.5749421341       -1.1159529076
 C         -0.1092079262       -1.5298923618       -0.8682588768
 C          0.2707840895       -0.5382489788        0.0391182945
 N         -0.6099737095        0.5591831363        0.3103892770
 C         -1.4077777022        0.4899629177        1.5300417690
 O         -2.6054060102       -0.2057656778        1.3722768245
 C         -3.6762562475        0.5411066514        0.8190048247
 C         -0.6922387022        1.6442933358       -0.4785345469
 O         -1.4233754381        2.5955205965       -0.2265579972
 C          0.1869959754        1.6556424813       -1.7193616069
 Cl         1.8594128819        2.0496999174       -1.2369323722
 C         -1.4425458349       -1.5278613414       -1.5635259992
 C         -2.3860268822       -2.5452903835       -0.9171774581
 H          1.0287188636       -0.5040599851        3.4277262385
 H          2.3128450358        0.6427159148        3.8133885911
 H          2.7114188832       -0.9490089824        3.1630867590
 H          2.9296731990        0.8013557743        1.4172004037
 H          1.2608619574        1.3017991688        1.6800858186
 H          3.3176850466       -1.6911385390        0.9061042370
 H          2.6763110851       -3.4489395623       -0.6935068597
 H          0.4888182036       -3.3411238001       -1.8213199526
 H         -1.5904721511        1.5203959126        1.8654821175
 H         -0.8372509608       -0.0695794659        2.2736868912
 H         -3.8939549588        1.4158611514        1.4383081614
 H         -4.5304509120       -0.1304307060        0.8053940138
 H         -3.4526303950        0.8794569519       -0.1958422824
 H         -0.1521685320        2.4481942156       -2.3847736628
 H          0.2166085209        0.6924556046       -2.2232223397
 H         -1.9010241886       -0.5390391949       -1.5211047726
 H         -1.2984305969       -1.7902814024       -2.6140497816
 H         -3.3344893438       -2.5643128881       -1.4476951753
 H         -2.5709420032       -2.2741489277        0.1192430572
 H         -1.9498495722       -3.5404260527       -0.9443163891
