! pbe def2-sv(p) def2/J RI DEFGRID1 loosescf d4 GCP(DFT/SV(P)) printgap
%output
    printlevel normal
end
* xyz 0 1
C 2.3796202509 -0.1912939857 -3.0694692251
C 3.2254902212 0.4370128974 -1.9804106829
O 2.4134480475 0.9048762204 -0.8763516509
P 2.0134565546 0.0277913307 0.3805964959
S 1.118203367 1.1315636548 1.7240656612
O 3.3825083187 -0.6447339484 0.8821151469
C 4.3735717667 0.1259102004 1.5936845638
C 4.2866950352 -0.1481680689 3.0822382911
S 1.0965879304 -1.7635393104 -0.2393138801
C -0.180571949 -1.9020216499 1.0528928395
S -1.8695090424 -1.8964201105 0.3924556434
P -2.0872429884 0.1110440704 -0.2049255653
S -0.7768855403 0.9652429001 -1.3993544262
O -2.2759306615 0.7713387976 1.2217175235
C -2.2216083098 2.1931530554 1.4437829541
C -3.3866497699 2.9130267901 0.7992208963
O -3.564800171 0.1218026291 -0.7880914385
C -3.8474206329 -0.1057140335 -2.1797682872
C -3.5173570409 -1.5223411063 -2.602972747
H 1.546778416 0.4647455715 -3.3120013629
H 2.9921168947 -0.339522841 -3.9530683849
H 1.9813968257 -1.1502869921 -2.7459523303
H 3.7157244935 1.3446658161 -2.3371153819
H 3.9701255044 -0.2676719416 -1.6002838101
H 5.3326971745 -0.199860359 1.1862238955
H 4.227344776 1.1903106501 1.3817518596
H 3.3312577386 0.1975265551 3.4710626041
H 4.3774928455 -1.2145898148 3.2674925717
H 5.0881143828 0.377672396 3.5911453878
H -0.0590206013 -1.0774335723 1.7598722578
H -0.0611731855 -2.8663005877 1.5393047664
H -2.232365775 2.2849581085 2.5308017077
H -1.2667385017 2.5691636903 1.061692888
H -3.3088048549 2.8491869322 -0.2853623368
H -4.3241782252 2.4615982712 1.1130060231
H -3.368356376 3.9575927356 1.0940210415
H -4.9138441493 0.1056344444 -2.2675160162
H -3.2724374627 0.614788193 -2.7705624489
H -3.8499607918 -1.6799382289 -3.6238909272
H -2.4407540708 -1.6825470867 -2.5528841062
H -4.0071901486 -2.2367304468 -1.9461310366
*
