! pbe def2-sv(p) def2/J RI DEFGRID1 loosescf d4 GCP(DFT/SV(P)) printgap
%output
    printlevel normal
end
* xyz 0 1
C 5.4181071956 -1.2333752099 -0.5485066634
C 4.697349138 -1.93436539 -1.6887211291
O 3.3552953659 -2.2740395888 -1.290843705
C 2.374541678 -1.4532328853 -1.6040347313
O 2.4908908587 -0.4556932191 -2.2826839118
C 1.0473464765 -1.946884396 -1.0531850882
C 0.2833256062 -0.7560274994 -0.4927948232
H 0.1530249316 0.0035221276 -1.2781471157
C 1.0648326709 -0.0797664549 0.6178810479
O 2.2722492586 -0.1132358915 0.6827945402
O 0.2744658927 0.5406788967 1.4669149139
C 0.8584696504 1.3155939051 2.5349366178
C 0.8366134392 2.7930379228 2.1854154389
S -1.3758827425 -1.2382971786 0.0757001296
P -2.2397856656 0.7081160858 0.1850081434
S -1.4021923544 2.1028171405 -0.9047804637
O -3.7652420307 0.4024465612 -0.1991545918
C -4.13544657 0.0274859449 -1.5297252257
O -2.4156078549 1.1125597811 1.6999862318
C -3.0897348089 0.2591299159 2.6462637409
H 5.4726731855 -1.8868786078 0.3173184035
H 6.4204843025 -0.9632654593 -0.8633907424
H 4.8735644922 -0.3337679646 -0.268910245
H 5.168226604 -2.8866949501 -1.9351610328
H 4.6460220864 -1.2921116469 -2.5725915453
H 1.2349395505 -2.6970352142 -0.2862534328
H 0.4764777066 -2.3949837903 -1.8676783029
H 0.2366908375 1.1063720762 3.4061521066
H 1.8796382166 0.9589680035 2.6944007597
H 1.4513269042 2.9834204264 1.3080786081
H -0.1811308558 3.108367537 1.9670944984
H 1.2208622561 3.3667739619 3.0219421856
H -3.6821240212 0.7077629436 -2.2525804441
H -5.2190665697 0.1045339035 -1.5657360902
H -3.8155811318 -0.9952033778 -1.728517648
H -2.6108397083 -0.7197239659 2.6710510235
H -4.1371978334 0.1543985431 2.3712034358
H -2.9912933715 0.763230277 3.6041159124
*
