! r2scan-3c def2/J RI DEFGRID2 scfconv6 printgap
%output
    printlevel normal
end
* xyz 0 1
C 3.9419537049 -3.5373664431 -0.4565144878
C 4.4261035616 -2.2476367634 -1.0998352888
O 3.3697230421 -1.6281678446 -1.8608428691
C 2.5213942127 -0.8451200814 -1.2326811183
O 2.5763089603 -0.5709988224 -0.0513629444
C 1.4638335106 -0.2930689889 -2.1661170415
C 0.3373343193 0.3157265906 -1.3424676041
H -0.3651848515 0.8582006901 -1.9829923702
C 0.9184573693 1.306832072 -0.3450166412
O 1.7491914172 2.1255419583 -0.6690784338
O 0.3548161789 1.2203767723 0.8394001114
C 0.8445289781 2.0435618398 1.915522706
C 1.5658779271 1.1664851728 2.9236139568
S -0.5934832673 -1.0219861453 -0.5045391194
P -2.1118495295 0.1274928474 0.3651374787
S -2.4850922614 1.9103361062 -0.3873060654
O -3.392805279 -0.8355867775 0.2829049216
C -4.1274008344 -1.0042302683 -0.9338367345
O -1.8257115246 0.0329381533 1.9236513138
C -2.7527743939 0.6076649911 2.8602588788
H 3.5616025436 -4.2141415164 -1.2163222941
H 4.7673421776 -4.0101447658 0.0653242338
H 3.1480682219 -3.3239718134 0.2559856935
H 5.2123782397 -2.435847726 -1.8306996148
H 4.7713564122 -1.5397590115 -0.3409895566
H 1.0991807044 -1.083573562 -2.8200528619
H 1.9289937011 0.4870458636 -2.7730977163
H 1.5078923887 2.8006779049 1.4884172445
H -0.0376484258 2.519780479 2.3485678583
H 2.3991785053 0.6633625503 2.4380296581
H 1.9365253478 1.7803929889 3.7374322505
H 0.8858757232 0.413314745 3.3125843366
H -5.0711565 -1.461386753 -0.6476620802
H -3.575410301 -1.6538009586 -1.6122593565
H -4.3004322314 -0.0338210159 -1.403076267
H -3.0284913961 1.616943099 2.5484972289
H -2.2298461169 0.6320008966 3.8130977047
H -3.644896757 -0.0137838093 2.9255255688
*
