! wb97x-v def2-tzvp def2/J RIJCOSX DEFGRID2 scfconv7 GCP(DFT/TZ) printgap
%output
    printlevel normal
end
* xyz 0 1
C 5.274691875416099 -2.466115028907241 -1.4770214522234155
C 4.41015076959871 -1.2382073260835105 -1.5896591117528627
O 3.5725888132692125 -1.1851262318977602 -0.3807893794258646
P 2.7039440377554755 0.1216427182252341 -0.023053982679439984
S 3.5902659154801997 1.851787357301175 -0.01563046636439655
O 2.1481599266384235 -0.24584696031528078 1.4305355932028778
C 1.4311988182623219 -1.5053634066621702 1.712265173194638
C 2.316647585705576 -2.423426328687882 2.5151209191365322
S 1.1226805773598147 -0.09135665807415577 -1.4334471673313283
C 0.29363294617294694 1.5340546728463662 -1.2585870865401585
S -0.6571307659258651 1.8079435915064794 0.28779113000735546
P -2.309170272379727 0.5192421916918867 -0.011536864418122017
S -2.932684128857548 0.3373236605480615 -1.8484984265104423
O -3.356721412596351 1.092449357159491 1.0667159679505183
C -4.194255072555337 2.2680453484581555 0.7762158932552073
C -5.639715312264744 1.8830623522434717 0.9561688442145229
O -1.8287109388700622 -0.8227093560831629 0.7255246818027424
C -2.700221828195116 -2.0126338808086275 0.7402210666156853
C -1.8713153253522485 -3.166008024902245 1.2419000157005784
H 5.896825370709476 -2.541982873262732 -2.373969445028697
H 5.93121535695302 -2.4035826384203594 -0.6046771552202951
H 4.664099670706402 -3.370387157777475 -1.4029815417323266
H 3.7498246709040575 -1.284564381870082 -2.461300243076259
H 5.007031283507657 -0.3220385692024719 -1.6342064538921928
H 0.545535135307826 -1.198630737426257 2.272404989442356
H 1.1127042120187298 -1.962050138192532 0.7709459679110374
H 2.635445991243677 -1.9441944810418246 3.4449163072249585
H 1.747706986669923 -3.323691005217283 2.7700356197020133
H 3.1996019002887004 -2.722612330752527 1.944042230953156
H -0.3785569581631285 1.6235031208373936 -2.1170098405524627
H 1.0424608561885136 2.33139400880823 -1.2945377594229925
H -3.8807736279509935 3.0386651170816954 1.4850570451149947
H -3.993805574531597 2.616045910229537 -0.2416477774697203
H -6.266193021719955 2.766767860440166 0.7993313522952982
H -5.932252403929563 1.1173088841407877 0.23210620066518647
H -5.821482832152231 1.5073314013089443 1.967068598492266
H -3.5480535327372538 -1.7976118972875939 1.39808582246668
H -3.063193369903617 -2.1880674160755444 -0.2772166744018805
H -1.0336606547135136 -3.366443169802649 0.5678955538037617
H -1.485721748721437 -2.968775844617135 2.246253194636996
H -2.502222208908702 -4.059255060312789 1.2838973391178659
*
