! pbe def2-sv(p) def2/J RI DEFGRID1 loosescf d4 GCP(DFT/SV(P)) printgap
%output
    printlevel normal
end
* xyz 0 1
C 5.8950561329 -0.233145118 0.5908639176
C 4.4671936809 -0.7393054685 0.6072182122
O 3.6595556349 0.1889750415 -0.1465225946
P 2.2161372602 -0.2261852269 -0.6646881646
S 2.1564803483 -1.9190965382 -1.6490002533
O 1.8025075883 1.0073321773 -1.5513178184
C 2.2662759017 2.3706632985 -1.3717265914
C 1.9716318929 2.9234107694 0.0057023707
S 1.0202174146 -0.191551304 1.0998729519
C -0.0327111325 -1.6245471529 0.769873322
S -1.1702418476 -1.4075325763 -0.6319455971
P -2.2950272064 0.2643687005 0.0369395341
S -1.6253528988 2.0757933726 -0.228502392
O -2.6365747727 -0.14248238 1.5416311008
C -2.5260494886 0.7468186787 2.6755879751
C -1.5136427972 0.2137414236 3.6687683446
O -3.6409847435 0.0797273396 -0.7775656145
C -4.4604439416 -1.1142330094 -0.6886464603
C -5.894536981 -0.7155610015 -0.9701570146
H 6.5181578651 -0.9116789107 1.1639954287
H 6.2630221724 -0.1860298333 -0.4302657316
H 5.944675648 0.7589729742 1.029921682
H 4.0706253484 -0.7859032971 1.6249896605
H 4.3855217105 -1.7273855049 0.1423897889
H 3.3375572985 2.3857045855 -1.5812284739
H 1.7236082233 2.9184262096 -2.1436030224
H 0.9021453893 2.9023588893 0.2022515789
H 2.4850577369 2.3414681492 0.7686118439
H 2.3175953605 3.95115305 0.0511932262
H -0.6016330717 -1.81162847 1.6767772782
H 0.5860785614 -2.4796829424 0.4987124049
H -2.2440054304 1.7420828174 2.3169528837
H -3.5255892027 0.7869702285 3.1128079307
H -1.5165810525 0.8536926157 4.5450476745
H -1.774761831 -0.7979191889 3.9668021376
H -0.515516262 0.2165842319 3.2347707838
H -4.0884995574 -1.8244302387 -1.4308159593
H -4.3519995801 -1.5422372176 0.3104801139
H -5.9652345244 -0.2550649408 -1.9514810414
H -6.5216652487 -1.6007997317 -0.9418484111
H -6.2403194286 -0.0037348139 -0.2258063896
*
