! pbe def2-sv(p) def2/J RI DEFGRID1 loosescf d4 GCP(DFT/SV(P)) printgap
%output
    printlevel normal
end
* xyz 0 1
C 3.0026597524 -3.7741196938 -0.3742287651
C 1.5896661055 -3.2238209744 -0.483158443
O 1.5422690817 -2.0849487724 -1.3616212569
C 1.8724367352 -0.9023313778 -0.8955477767
O 2.2173631176 -0.6727593593 0.2462426395
C 1.7289017335 0.1747255451 -1.955444428
C 0.5504994234 1.0875949561 -1.5850867903
H 0.4722917693 1.9082152243 -2.2999604412
C 0.7553617701 1.6320229197 -0.1893835313
O 0.1524016987 1.1958446748 0.7758721573
O 1.6297608723 2.5903730009 -0.1595176479
C 2.0185963145 3.1411935139 1.1203911865
C 3.2386167191 2.4070743365 1.6506963303
S -1.0259435353 0.1664521119 -1.6497294023
P -1.7508569323 -0.1104024945 0.3343662984
S -2.6272733345 1.3253978788 1.3639525523
O -2.8706783661 -1.1837848288 -0.1101116216
C -4.0699049288 -0.8032895448 -0.7842154527
O -0.8755596489 -1.205994439 1.0913460105
C -0.2679362709 -1.0064354424 2.3690864284
H 2.9900192669 -4.6709486023 0.2361425944
H 3.3852614144 -4.0174221504 -1.3615429786
H 3.6570287451 -3.0402571599 0.090774369
H 1.2066601866 -2.9257071625 0.4969901652
H 0.9132079282 -3.9442007174 -0.943204861
H 1.5398013942 -0.2905404688 -2.9210874449
H 2.6403683584 0.7736182272 -1.9843952894
H 2.2372148919 4.1882404515 0.9108086251
H 1.1737918285 3.0567638368 1.8087456913
H 4.0832729488 2.5483322743 0.982829794
H 3.4897801281 2.7903554153 2.6337927944
H 3.0273682221 1.3420369524 1.7272167179
H -4.7535315688 -1.6402165249 -0.6640982484
H -3.8666754502 -0.6225280726 -1.8399840601
H -4.4882302738 0.0960315725 -0.326515474
H -0.7107379673 -0.1453451965 2.8719704553
H 0.8010356242 -0.8412040955 2.2305732328
H -0.4514164928 -1.9142277996 2.9401296644
*
