! pbe def2-sv(p) def2/J RI DEFGRID1 loosescf d4 GCP(DFT/SV(P)) printgap
%output
    printlevel normal
end
* xyz 0 1
C 1.772459097 -3.8244004122 0.1347062529
C 2.6317474439 -2.5766697419 0.2191752623
O 2.2858822326 -1.7093824183 -0.8779410864
C 2.1230178077 -0.4252807511 -0.6748492613
O 2.2650342073 0.1466926019 0.3889113535
C 1.7114562486 0.3048174589 -1.9402898943
C 0.3946713293 1.0434724356 -1.6848129666
H 0.1973097539 1.7476439587 -2.4962835484
C 0.441704181 1.7904019123 -0.3673754175
O -0.3325686277 1.5397533527 0.5444449832
O 1.3309951789 2.7320743368 -0.3505068363
C 1.5287664182 3.4604856032 0.882173809
C 2.4611610421 4.6184684315 0.5916849553
S -1.0319847141 -0.0947839367 -1.6561184659
P -1.4847400324 -0.504321267 0.3765340721
S -0.3425617094 -1.0954612102 1.8535960819
O -2.6622949672 0.444909808 0.9049941707
C -3.7111726323 0.9083029087 0.0396820231
O -2.3142888975 -1.7933517139 -0.1967735355
C -2.9829624084 -2.6942149283 0.6822489448
H 0.7269500071 -3.5626266439 0.2821836213
H 1.8891148107 -4.2923848909 -0.8379661241
H 2.0719671824 -4.5178398395 0.9129297622
H 3.6929789112 -2.8140522882 0.1113663948
H 2.4644060427 -2.0400059203 1.1579695799
H 1.5945167593 -0.4039203647 -2.7579207233
H 2.4857994852 1.0366322439 -2.1770938568
H 0.5529684292 3.7944813105 1.2473728212
H 1.9514474551 2.759999278 1.6092165857
H 2.0228973226 5.2740150496 -0.1546028107
H 2.6279721891 5.1772001178 1.5063752382
H 3.4114357527 4.2458187754 0.2226779634
H -3.9438296396 0.159644735 -0.719287358
H -3.3998085422 1.8367459722 -0.4381060519
H -4.5685598684 1.082433096 0.685780289
H -3.2625399514 -3.5487992321 0.0710564301
H -3.8671893734 -2.2226655631 1.1132393443
H -2.3102280944 -3.0015230609 1.4861191993
*
