! pbe def2-sv(p) def2/J RI DEFGRID1 loosescf d4 GCP(DFT/SV(P)) printgap
%output
    printlevel normal
end
* xyz 0 1
C 1.8461920718 -0.949107361 -2.915202174
C 3.2379182288 -0.6745079746 -2.3830936612
O 3.3516159518 -0.9656456929 -0.9793266699
P 2.6424701843 -0.0980047526 0.1503517574
S 2.6788826743 1.8433726901 -0.0837920263
O 3.4442624724 -0.5208709823 1.4415727936
C 3.6270515398 -1.9042700296 1.8504414194
C 2.8115015764 -2.1942305058 3.0948855257
S 0.739001822 -1.009840613 0.3714519547
C 0.0147216484 0.3323469518 1.3771247301
S -1.7663108769 0.1543507074 1.5252473704
P -2.325486506 0.7094255147 -0.4680475898
S -0.9238243229 1.4883432367 -1.5876558674
O -3.54024543 1.6874351126 -0.2759645012
C -4.6912449662 1.3717692456 0.5552234726
C -4.7115264581 2.2750610206 1.7715712974
O -3.0541729496 -0.5673139622 -1.0802595129
C -2.3649138416 -1.7065378852 -1.6288989508
C -2.2313185464 -2.8137467264 -0.6014957063
H 1.5220806336 -1.9464371485 -2.6276629466
H 1.1416344821 -0.2156753811 -2.5233833853
H 1.8551086994 -0.8703674491 -3.9975330763
H 3.5127754576 0.372409001 -2.5448138407
H 3.9804946253 -1.329383456 -2.8417557444
H 3.3463775516 -2.5616907242 1.0253739213
H 4.696323627 -1.9959422264 2.0456200674
H 3.0619273509 -3.1863914882 3.4566703082
H 3.0402340442 -1.4646295827 3.8669862059
H 1.7474401291 -2.1582497088 2.8745261483
H 0.2559804193 1.2818743317 0.8927871293
H 0.4176030993 0.2921005684 2.38691746
H -5.5567506189 1.5460799603 -0.0855952267
H -4.6496007562 0.3192419765 0.8410026078
H -3.853441092 2.0745563631 2.4082446021
H -4.684765273 3.3161133805 1.4617473633
H -5.6216190222 2.0915380297 2.3335880658
H -2.9877601166 -2.0193990522 -2.4690053977
H -1.3872821021 -1.3854202639 -2.0014240237
H -3.2053545446 -3.0534911711 -0.1848090278
H -1.8212307212 -3.6942880137 -1.0846255012
H -1.5633814342 -2.5135728444 0.202788586
*
