! pbe def2-sv(p) def2/J RI DEFGRID1 loosescf d4 GCP(DFT/SV(P)) printgap
%output
    printlevel normal
end
* xyz 0 1
C 3.3408756927 -1.8212543023 1.4079023705
C 3.0058899012 -2.3881785169 0.0383618229
O 2.7141764605 -1.3195798779 -0.882777832
C 1.4721971749 -1.0732949266 -1.2297672721
O 0.5047489933 -1.704413784 -0.8445185289
C 1.3792832171 0.0988534114 -2.1828390688
C 0.3080746242 1.0867126092 -1.7237235
H 0.2321056042 1.9064777246 -2.4442329866
C 0.5822034314 1.6747342745 -0.3519227661
O -0.3099687733 1.864248148 0.4534765901
O 1.8458155891 1.9233941125 -0.1529466243
C 2.2449955827 2.4630828323 1.1265932186
C 2.0373650831 3.9671159658 1.1736978515
S -1.3694641435 0.3656522652 -1.6730529385
P -1.5341047988 -0.3671034353 0.3105477872
S -0.2832085988 -0.7308497807 1.7773844824
O -2.7099176807 0.5000167166 0.979118053
C -3.8371969201 0.9787488884 0.2337303972
O -2.3049914507 -1.6943546368 -0.1990453475
C -2.676980273 -2.7187959349 0.7215384771
H 2.467367442 -1.3300834138 1.8340488971
H 3.6398073137 -2.6300668977 2.0659899103
H 4.152075665 -1.1038892439 1.326293922
H 2.1397913571 -3.0531799949 0.0925198507
H 3.860911808 -2.9092279529 -0.3952626585
H 1.0997843631 -0.283072769 -3.1661778406
H 2.3493884174 0.5921373336 -2.2338372033
H 1.669303758 1.9596161683 1.90899497
H 3.2998128059 2.2007266273 1.2034658961
H 0.9779234958 4.2022686629 1.1006810806
H 2.4155593407 4.3472446314 2.1167272079
H 2.5677290558 4.4447189155 0.3546587354
H -4.6338347146 1.1124662084 0.9618870895
H -4.1296104368 0.256242435 -0.5301201096
H -3.5814609546 1.9294693759 -0.2326891188
H -1.7855126366 -3.13928191 1.189445117
H -3.1885943195 -3.4719913084 0.127809618
H -3.3364527864 -2.3200475546 1.4950743706
*
