! pbe def2-sv(p) def2/J RI DEFGRID1 loosescf d4 GCP(DFT/SV(P)) printgap
%output
    printlevel normal
end
* xyz 0 1
C 2.7117407588 2.2671324943 -2.0313629846
C 3.1251115009 0.8127049626 -2.1298514153
O 2.2169355351 -0.0558605611 -1.4211144084
P 2.072609544 -0.1292339841 0.148371425
S 1.2594455942 1.3376712589 1.1752435447
O 3.5985080332 -0.3680516546 0.5574134368
C 4.0730996675 -0.2371905337 1.9055695845
C 3.5502457376 -1.3416269703 2.8017624884
S 1.1271028816 -2.0109140072 0.2687527248
C -0.2275126457 -1.6455682593 1.4359104616
S -1.8834167541 -1.7981599181 0.7123926727
P -2.0747887238 0.0939389227 -0.2098296724
S -0.8617520756 0.496493016 -1.7071206154
O -2.0218209537 0.9927842609 1.0912003416
C -2.5786172943 2.3193729234 1.21112991
C -1.9396152026 3.3041231674 0.2553136343
O -3.6098198771 0.1822614499 -0.6097789637
C -4.0961428122 -0.2635557865 -1.8864319572
C -4.0539119691 -1.7729404832 -2.0053034491
H 3.3455428281 2.8690661101 -2.6745156013
H 1.6741261748 2.3754876171 -2.3413193728
H 2.8053749798 2.6204863033 -1.0054997739
H 4.1334599375 0.6574949486 -1.7381848863
H 3.0630960917 0.4525079416 -3.1581873206
H 5.158704825 -0.2781706278 1.8069414024
H 3.7694154652 0.7436442525 2.2862242821
H 3.7458192711 -2.3134493785 2.3558019688
H 4.0391754964 -1.2813662516 3.7686769878
H 2.4759967078 -1.2276813085 2.9414886231
H -0.0960448514 -0.633227733 1.8277798767
H -0.1881956254 -2.3910325106 2.2253089479
H -3.6561478266 2.2512326561 1.0460949358
H -2.3714595479 2.5836915528 2.2494811416
H -2.154632761 3.0239905007 -0.7751616906
H -2.3304129633 4.298665268 0.444647349
H -0.860153083 3.3089523122 0.3943608338
H -5.1170392961 0.1182984258 -1.9274532616
H -3.4894978554 0.2021599052 -2.6702918146
H -4.5264451887 -2.075789229 -2.9340828089
H -3.0193711631 -2.1150334783 -2.0066271917
H -4.5706229016 -2.23263611 -1.1668416786
*
