! wb97x-v def2-tzvp def2/J RIJCOSX DEFGRID2 scfconv7 GCP(DFT/TZ) printgap
%output
    printlevel normal
end
* xyz 0 1
C -1.4169375484959632 -0.9929311392287695 0.00019741173969303058
S -3.78796286486528e-05 0.10903666361791445 -0.0004478265175833204
O -0.0008920206379279472 0.8854095818419849 1.2669133148950784
O -0.0004612801642877287 0.8832555758139929 -1.2691334454290804
C 1.418682356476824 -0.990587349661984 0.0006913202408700859
H -1.3811502469879706 -1.6101993446697125 -0.9002699539830784
H -1.3825211887120537 -1.6074697144425545 0.9025766236519299
H -2.3081461960688645 -0.35942904896807903 -0.0014609162959109492
H 1.3839943476960972 -1.6081909742660911 -0.8995951266443437
H 2.308844988759356 -0.3556046492911528 -0.0010707019135113044
H 1.3851671219222634 -1.6049033762443274 0.903262877492489
*
