! pbe def2-sv(p) def2/J RI DEFGRID1 loosescf d4 GCP(DFT/SV(P)) printgap
%output
    printlevel normal
end
* xyz 0 1
C 3.0028567991 -1.498681505 -2.4669701841
C 2.0862358568 -0.2964398249 -2.5264633256
O 2.2739127887 0.6047855962 -1.4120403914
P 2.1735767788 0.2437234526 0.1159378275
S 1.7810316297 1.7866655731 1.256492332
O 3.6303549499 -0.3593887287 0.3673902286
C 4.2340134293 -0.4544605193 1.665674625
C 3.5005539834 -1.4166129516 2.5789995574
S 0.8699634066 -1.4328464254 0.2869364583
C -0.2590634304 -0.8271174214 1.5814326343
S -2.0133606674 -1.0893722779 1.2091215518
P -2.3846221496 0.3120454035 -0.3466990311
S -0.8392648286 1.2106184075 -1.1773406835
O -3.5341447664 1.2393661788 0.2254063624
C -3.5127888767 1.8684774502 1.5177425387
C -2.4153479413 2.907684808 1.6417952872
O -3.3049556001 -0.4494070064 -1.3821117931
C -2.761965144 -1.1458212151 -2.517042753
C -2.0957026366 -2.4475802574 -2.1159148458
H 2.7606983722 -2.114552534 -1.6021245328
H 2.8715029259 -2.0884617304 -3.3687726141
H 4.0380806064 -1.1765413763 -2.3912169845
H 1.0346897184 -0.5962117951 -2.5435242296
H 2.2953970392 0.3344280301 -3.3916384849
H 5.2489588848 -0.7944702773 1.4544963417
H 4.2626427864 0.5466091231 2.1081011715
H 2.5288251827 -1.0031817994 2.8451450123
H 3.3595217849 -2.3752030814 2.0862278248
H 4.0796023951 -1.5590257426 3.4857683716
H -0.049402937 0.2343141988 1.7403806241
H -0.0845418288 -1.4030570789 2.4870218333
H -4.4995794816 2.3282969416 1.5950130092
H -3.4064542708 1.0943833522 2.2840911062
H -1.4301559428 2.4463810345 1.5710950597
H -2.5000331664 3.6437090498 0.8456955733
H -2.4958525994 3.4075081544 2.6017198933
H -3.6275592553 -1.3185616057 -3.1580737029
H -2.0526870988 -0.4834872359 -3.0257206303
H -2.7804011844 -3.0528471691 -1.5277968362
H -1.8078500004 -2.9932228727 -3.0087186486
H -1.2042458995 -2.2512138336 -1.5210465535
*
