! pbe def2-sv(p) def2/J RI DEFGRID1 loosescf d4 GCP(DFT/SV(P)) printgap
%output
    printlevel normal
end
* xyz 0 1
C 1.2935953398 3.3663955049 1.094087211
C 2.0156000468 2.0844141453 0.7358642136
O 1.3202281675 0.9922801457 1.3837388449
P 1.5960971976 -0.5205102395 1.0359700406
S 0.6266171454 -1.7109792899 2.2481083948
O 3.1891905549 -0.5290512962 1.1468357631
C 4.0683208948 -1.5489514304 0.6395012978
C 3.7413185836 -2.9307301028 1.1663890629
S 1.3164587454 -0.8503592205 -1.0518404188
C -0.160736894 -1.8941362684 -1.0126183722
S -1.641888273 -1.1676742214 -1.7844340351
P -1.8087224603 0.6590836023 -0.7201661172
S -3.5168563964 1.5950927445 -0.9023937519
O -0.5364692826 1.5257927179 -1.1194562995
C -0.5440685158 2.3907392832 -2.2709057789
C -0.4145121101 1.6144016255 -3.5668100623
O -1.3406775103 0.3017611066 0.7586005079
C -2.3125788634 0.0910085061 1.7991915253
C -3.023764174 -1.238860991 1.6513824427
H 1.2907863611 3.5031208335 2.1717856577
H 1.7976424026 4.2056620169 0.6254666522
H 0.2639414722 3.3225684287 0.747881307
H 3.0465647359 2.0895559844 1.0958154716
H 2.0083196602 1.9065938862 -0.3432987456
H 4.0200709152 -1.5295728554 -0.4527521594
H 5.0549977314 -1.2214053179 0.9721434787
H 3.7174541735 -2.9269211528 2.2536110512
H 2.7670670285 -3.2547746462 0.8041970309
H 4.4966610753 -3.6317876864 0.8262553846
H -0.3664040599 -2.1532769858 0.0295757101
H 0.0422433511 -2.7826304541 -1.6057464794
H -1.4694245466 2.9763318524 -2.2581004873
H 0.3108504808 3.0501679398 -2.1122785787
H 0.4465771153 0.9510616946 -3.525080964
H -1.3098012396 1.0191659443 -3.740824288
H -0.2914004285 2.3126509616 -4.3884506758
H -1.7280337727 0.130753974 2.7197583375
H -3.0289499814 0.9179101048 1.7739917809
H -2.3096349379 -2.0576460938 1.7027792216
H -3.7423657674 -1.3478775554 2.4571958519
H -3.5517517258 -1.2753170634 0.6984397712
*
