! wb97x-v def2-tzvp def2/J RIJCOSX DEFGRID2 scfconv7 GCP(DFT/TZ) printgap
%output
    printlevel normal
end
%cpcm
    smd true
    smdsolvent "water"
end
* xyz 0 1
C 2.9601269556185454 -1.941742453552779 0.27553394199414627
C 1.709460299008144 -1.160696459097056 0.10247663145765809
C 1.5564589166774254 0.18394649039388927 0.21282931630748914
C 0.2801547434243506 0.8339686780809603 -0.01639415039059922
O 0.16578463383977354 2.050500772679842 -0.1459722130813426
N -0.8390319346996737 -0.03286812149561728 -0.07043764752182893
C -0.668167773617986 -1.3637037621926607 -0.4430132439809002
O -1.540181252250276 -2.076893574573797 -0.9332200493091217
N 0.5932748855066826 -1.8809269151223957 -0.225518311222623
C -2.256257491567955 0.5374636773420349 0.051806228124840925
C -3.2048332027100104 -0.5329338885024346 0.6205145931290021
C -2.2689914404911247 1.6937778246506017 1.0674286793093264
C -2.728511821968398 1.006935417467426 -1.321786865429634
Cl 2.906876640256381 1.2308820712174247 0.5526959641824448
H 3.8370368620674578 -1.2978116232422914 0.3039165505224248
H 3.067412131724851 -2.6634368524938683 -0.540199154038182
H 2.907532959770427 -2.506269066168501 1.2138963462825092
H 0.7013037149893048 -2.857649458197969 -0.4720683195372419
H -2.770088444387308 -1.021087584361468 1.4989432695822955
H -4.116495990222214 -0.02165835703617327 0.938427657354714
H -3.4804966082031283 -1.2918682789501394 -0.10665131446637117
H -1.8352586123145898 2.6118088383923044 0.6803721837243406
H -1.7491263453023176 1.415029568105177 1.989887093670213
H -3.313480507837534 1.892107063956932 1.3196069801339845
H -2.7377020998428714 0.17776257812586216 -2.0349790649085193
H -3.7469253732923877 1.3988220960484048 -1.2357693160844248
H -2.0845099482883334 1.801413417901529 -1.7085047128428932
*
