! pbe def2-sv(p) def2/J RI DEFGRID1 loosescf d4 GCP(DFT/SV(P)) printgap
%output
    printlevel normal
end
* xyz 0 1
C 2.0587375354 2.4950119413 -0.9854091494
C 1.9953855448 1.0854133701 -1.532544005
O 1.3203466775 0.1687558078 -0.644579642
P 1.807347152 -0.0963449333 0.8645068516
S 1.1394462604 1.1382477321 2.2227838767
O 3.3892329847 -0.0625579692 0.8707345611
C 4.2507204442 -1.0167300405 0.1968892875
C 4.7977908009 -2.020678063 1.1910585443
S 1.3168105491 -2.147062079 1.0369776802
C -0.3076985913 -2.193065265 0.2275861703
S -1.4951129131 -0.996242631 0.8895474249
P -1.7412289355 0.2615040967 -0.821915787
S -1.0666071812 -0.4078657527 -2.5283815886
O -1.1713656287 1.6757805164 -0.4164027828
C -1.7323043755 2.4542254986 0.6706566974
C -2.6120285294 3.560293156 0.1274705271
O -3.3095026074 0.5486515993 -0.8102137776
C -4.2614368271 -0.2921636616 -1.4844919344
C -4.3323477156 -1.6878273208 -0.899348481
H 2.5454214221 3.1385015734 -1.7117114348
H 1.0551281421 2.8646830551 -0.7903616882
H 2.6232838524 2.511100232 -0.0531611753
H 2.9986002984 0.6999971462 -1.7297885527
H 1.3977570433 1.035181532 -2.4457114004
H 3.6930333814 -1.5170036798 -0.5988893939
H 5.0505753511 -0.4090827316 -0.23059041
H 5.4991975055 -2.6758536379 0.684303333
H 5.3065808128 -1.5028922161 1.9992236019
H 3.9900574326 -2.6173593518 1.6100580817
H -0.6902022207 -3.1917990846 0.4248200722
H -0.1923338951 -2.0154361664 -0.8451400202
H -2.2890590172 1.7895134155 1.3362770083
H -0.8689379877 2.8498145989 1.2108102526
H -2.9630842012 4.1678871747 0.9554243743
H -2.0464447984 4.1831857794 -0.5601241246
H -3.4652203181 3.1393956411 -0.3980624371
H -5.2060978984 0.2402398165 -1.3645603529
H -3.9903072259 -0.3344389759 -2.543911019
H -5.1582997881 -2.2227885212 -1.3569912456
H -3.4081756347 -2.2258891384 -1.1047115855
H -4.4829871734 -1.642409474 0.176361885
*
