  8
        -15.42404252
 C         -0.0023408825       -1.8217267029        0.1640357127
 C         -0.0000720090       -0.4444742982       -0.4471119070
 Cl         1.4500159049        0.4815878973        0.0567065740
 Cl        -1.4489574353        0.4832665502        0.0566369505
 H         -0.8896033430       -2.3572258958       -0.1626275825
 H          0.8838752238       -2.3588720914       -0.1625753832
 H         -0.0023948824       -1.7606864675        1.2488520910
 H         -0.0003549298       -0.4563440870       -1.5371846816
