! wb97x-v def2-tzvp def2/J RIJCOSX DEFGRID2 scfconv7 GCP(DFT/TZ) printgap
%output
    printlevel normal
end
* xyz 0 1
C -1.2623035823974131 0.9925134863930875 -1.2526713489573584
C -1.00405247006495 0.12542354368976488 -0.0055224537304799474
C -1.9315370665248797 -1.0906311822314507 -0.017380825959419154
C -1.237170874070976 0.9522941639711113 1.2667730927352214
C 0.4408211525137589 -0.3482393675105784 -0.07867732242469755
O 0.7981106295132278 -1.4768789245421492 -0.3733720756603128
O 1.315368991593148 0.6400319019703903 0.1870512802168053
C 2.7186404354376696 0.2902365225138122 0.08117499051067827
H -0.6226797766184291 1.8794389965946257 -1.2608616632211729
H -1.0840105230209005 0.4222021685327782 -2.1701021555331232
H -2.3069811223401744 1.3194439096183377 -1.2487729930759977
H -2.9701900188466377 -0.7505478614923832 0.03165550182533314
H -1.7407650501914338 -1.7400676769938965 0.8425631863781164
H -1.8049226056689858 -1.6789751886249324 -0.9300600720033398
H -0.9963589253146135 0.37044470580737193 2.1625062511860884
H -0.6373579335739191 1.8653445320231061 1.2728491057991083
H -2.2929800598789147 1.2362541891007925 1.3172329116141122
H 3.262432202982544 1.1997985236440432 0.3343695795597662
H 2.9526555611536467 -0.023248727191479177 -0.9391130587884567
H 2.96321674558043 -0.5087047469137576 0.7852657883698163
*
