! pbe def2-sv(p) def2/J RI DEFGRID1 loosescf d4 GCP(DFT/SV(P)) printgap
%output
    printlevel normal
end
* xyz 0 1
C 4.3046012753 -1.934198215 0.9659622573
C 2.8284087761 -1.9780376594 0.6257550135
O 2.5776815298 -1.0152797299 -0.4169004198
C 1.4318966747 -1.0700925971 -1.0552819743
O 0.5480648499 -1.871066078 -0.819878388
C 1.327668214 -0.0136158173 -2.1362207956
C 0.1882708078 0.9614238878 -1.8266242869
H 0.0654734792 1.6523555287 -2.6660075371
C 0.4373072827 1.7740789177 -0.5691264207
O -0.427186475 1.9535256226 0.2680273319
O 1.6495669775 2.247884289 -0.5227349199
C 2.0759903471 2.9689791126 0.6542441264
C 2.7183016338 2.0110618207 1.6431373373
S -1.433301562 0.1416949876 -1.6664017938
P -1.6864879975 -0.2314608843 0.4223966928
S -0.3166691109 -0.5047425232 1.7978439407
O -2.7727675545 0.8013095142 0.93772525
C -3.9963757227 1.0824969326 0.2376885139
O -2.6478591689 -1.519095089 0.2942810194
C -2.1816928709 -2.8389183415 0.0212710115
H 4.5133997903 -2.6750575029 1.7301926977
H 4.8982436957 -2.1508385893 0.0827358714
H 4.5726516115 -0.9519285643 1.3421928396
H 2.2007549149 -1.7194275783 1.4847758835
H 2.5213094363 -2.9632267205 0.2608294156
H 1.1064220427 -0.5140007393 -3.0795841866
H 2.2679261132 0.5324189997 -2.1999962647
H 2.7935532515 3.6985682472 0.278750764
H 1.2101437919 3.4681162092 1.0963861694
H 3.5389731823 1.4819077787 1.1670058978
H 3.0920692892 2.5687071986 2.4950782259
H 1.9868033222 1.283286438 1.9927364798
H -4.4879977333 1.849112753 0.8310437223
H -4.6072476028 0.1828652396 0.1807528207
H -3.7786199125 1.4516103898 -0.7647454073
H -1.8646454697 -2.9172397215 -1.0179040536
H -3.0257678221 -3.4936903712 0.2229258339
H -1.3398943743 -3.0816952361 0.6708287168
*
