! pbe def2-sv(p) def2/J RI DEFGRID1 loosescf d4 GCP(DFT/SV(P)) printgap
%output
    printlevel normal
end
* xyz 0 1
C 2.3994505325 0.3958825529 -2.6306512421
C 1.6377755013 1.3654865648 -1.7534238581
O 1.0743749133 0.712856562 -0.5972896767
P 2.0097752639 0.2258000589 0.5984032328
S 3.5772364538 1.3499016224 0.9348759512
O 2.3440173322 -1.2742057317 0.1761538843
C 3.4506640914 -1.9988980608 0.7401966324
C 3.1012546013 -2.5951416547 2.0893345041
S 0.6654408568 0.1485490291 2.2065252421
C -0.472276672 -1.2355148011 1.7807260832
S -0.6754662744 -1.5704587711 0.0211917482
P -1.8428200452 0.0772038985 -0.6139752604
S -1.7335778534 0.4610092251 -2.5335875087
O -1.422087155 1.1890478401 0.4348319623
C -2.2784684693 2.2742149995 0.850577202
C -2.5392071694 3.2543588051 -0.2737409036
O -3.3332333998 -0.2297679584 -0.1153863356
C -4.2769136514 -0.9382561013 -0.9309232702
C -3.9379709403 -2.411327031 -1.0387311434
H 2.7162820312 0.9071883759 -3.5341213403
H 3.2769568555 0.0256915875 -2.102634832
H 1.7613904971 -0.4436545425 -2.8970427065
H 0.7701654799 1.7764317712 -2.2734224482
H 2.2869056649 2.1769066044 -1.408484989
H 3.6643575135 -2.7737525245 0.0026612614
H 4.3050203142 -1.3184363895 0.8245270472
H 2.2391349907 -3.2503275208 1.9974526286
H 3.9474660261 -3.1690943588 2.4533371977
H 2.8801423604 -1.8033527814 2.803825552
H -1.4264831364 -0.9729663369 2.2309731235
H -0.0755990537 -2.1520907858 2.2103713971
H -3.212950198 1.8557039693 1.2298047312
H -1.7191241372 2.73673603 1.6664596911
H -3.1379452426 4.0796244974 0.098743462
H -1.6002451228 3.6396578874 -0.664771673
H -3.0741618139 2.7622530256 -1.0851446944
H -5.2335149204 -0.779164087 -0.4311484447
H -4.2934539215 -0.475487504 -1.9232447485
H -4.7210681518 -2.9192739407 -1.5922591585
H -2.993372544 -2.5364246604 -1.5674855258
H -3.8478300721 -2.8548894854 -0.0508405612
*
