  28
        -29.74609998
 C         -4.7617219357        0.5064378643       -0.1490795254
 C         -3.3332947892        0.7434292153        0.3265258508
 C         -2.3702267228       -0.3009776423       -0.2321485857
 C         -0.9360695142       -0.0639421979        0.2353080221
 N         -0.0692030902       -1.1261959478       -0.2452322797
 C          1.2921595590       -1.0882752618        0.2545980910
 C          2.1498066112        0.0932743443       -0.2224746163
 C          3.5877232870       -0.0155430104        0.2770538683
 C          4.4413950121        1.1578070159       -0.1902534542
 H         -5.4306875503        1.2583998323        0.2618118144
 H         -4.8146213013        0.5543832535       -1.2342953772
 H         -5.1087565296       -0.4742208729        0.1673825776
 H         -3.0065919904        1.7385024244        0.0150624503
 H         -3.3033846397        0.7124552284        1.4177301940
 H         -2.6797029813       -1.2975820844        0.0849195746
 H         -2.3998453786       -0.2750657539       -1.3239407029
 H         -0.8996049385       -0.0837636823        1.3291174730
 H         -0.6134757862        0.9399535797       -0.0917714304
 H         -0.0582500806       -1.1184857769       -1.2609619034
 H          1.2412504672       -1.0837337315        1.3474660674
 H          1.7709692742       -2.0220665087       -0.0555056823
 H          1.7158838386        1.0295541310        0.1357241502
 H          2.1456277606        0.1186691359       -1.3159168817
 H          4.0237271099       -0.9495196130       -0.0842960472
 H          3.5854748725       -0.0521267989        1.3686034939
 H          5.4599544253        1.0585827601        0.1763287240
 H          4.4692067564        1.1995940745       -1.2768435168
 H          4.0330790270        2.0964163686        0.1779050548
