! pbe def2-sv(p) def2/J RI DEFGRID1 loosescf d4 GCP(DFT/SV(P)) printgap
%output
    printlevel normal
end
* xyz 0 1
C 4.1003893102 -0.5960649246 -2.1281528812
C 4.4869842715 0.1978259891 -0.8971301239
O 3.3408859212 0.7262751572 -0.1836568411
P 2.2942179464 -0.1102703871 0.6505236809
S 1.4883162271 1.038730624 2.01823375
O 3.1564243705 -1.3490302267 1.1402590573
C 2.6044305422 -2.5867079875 1.6272323765
C 1.87070989 -2.4164482064 2.9412548882
S 0.9261881858 -1.0064486929 -0.7365767243
C 0.4145070785 0.5162883384 -1.5697342329
S -0.7187743217 1.5544359211 -0.6124319924
P -2.4906592931 0.3701463289 -0.7886202631
S -2.4353632416 -0.9724590882 -2.2107419157
O -3.6797601615 1.367524422 -1.0552317391
C -4.2778354226 2.2649464599 -0.0892163458
C -3.3110976304 3.3232739413 0.3984243534
O -2.8272746208 -0.1055352445 0.6950353393
C -1.9677530976 -0.8743647033 1.5498951316
C -1.9115158039 -2.3331367126 1.1427503932
H 3.4814260756 0.0008904751 -2.7936947832
H 5.0048682796 -0.8835754169 -2.6554594759
H 3.555094407 -1.4953071943 -1.851125948
H 5.0486199796 1.0957324021 -1.1602718689
H 5.0674380991 -0.4135355231 -0.204970195
H 1.940788759 -2.9947251981 0.8594158118
H 3.4788377264 -3.2302512639 1.7405416376
H 2.5242829026 -1.9639994914 3.6827030438
H 1.004856571 -1.770736715 2.8090124653
H 1.5417315022 -3.3875362003 3.2968832867
H -0.0822639815 0.1961717378 -2.4858319317
H 1.2853450953 1.1342175004 -1.7761953812
H -5.1075329494 2.7060702705 -0.6438284214
H -4.6595215147 1.6690828956 0.7416682772
H -2.883184817 3.8637381834 -0.4423549217
H -3.8416691115 4.0210865317 1.0388788929
H -2.5012452706 2.8707663996 0.9695847153
H -0.9709891431 -0.4188550112 1.5546490984
H -2.4126119647 -0.7564383243 2.5401809655
H -1.3326247754 -2.8867113293 1.8751106867
H -2.9168503899 -2.7430862787 1.0935876993
H -1.4456256432 -2.4407901665 0.1651775762
*
