! pbe def2-sv(p) def2/J RI DEFGRID1 loosescf d4 GCP(DFT/SV(P)) printgap
%output
    printlevel normal
end
* xyz 0 1
C 4.0751391867 -2.5897700816 -1.5769834293
C 4.6334119846 -1.1834680888 -1.6491566516
O 4.066629449 -0.3130286125 -0.6521039701
P 2.5291967378 0.0939042948 -0.6218670827
S 1.7046785703 0.4746119957 -2.3512591991
O 2.5496910704 1.3584333667 0.3165194363
C 3.1430494379 1.3500454803 1.6411387981
C 2.2740382747 2.1846586188 2.5584632727
S 1.613646692 -1.4601609909 0.5207377124
C -0.0739245899 -1.0883805452 0.0308810527
S -0.6429962893 0.4582601818 0.8362799988
P -2.6962047205 0.2327854509 0.3527614992
S -3.8707012442 1.6815051881 0.9477524935
O -3.0460003324 -1.2153402548 0.9029101156
C -3.208665962 -1.4205510361 2.3233826658
C -3.799195752 -2.8007549851 2.5266007705
O -2.7350617966 -0.1484778679 -1.1854756831
C -3.023943735 0.8409113981 -2.1895932999
C -1.9092406753 1.8590247017 -2.3229976577
H 3.0276540526 -2.5921579941 -1.8739977858
H 4.6325165327 -3.2290941376 -2.2541049532
H 4.1548135595 -2.9783151664 -0.5648550842
H 4.4471863006 -0.7449307362 -2.6342407454
H 5.7019501391 -1.1622550963 -1.4302643046
H 3.2155993352 0.3162000502 1.9909332514
H 4.1452804218 1.7701939999 1.5413147237
H 1.277733425 1.7538472462 2.6270041799
H 2.7232449266 2.2146543208 3.5457726246
H 2.1861643453 3.1952576563 2.1703448278
H -0.7006067763 -1.9168501849 0.3511600825
H -0.1100836366 -0.9550613996 -1.0516787809
H -2.2298959375 -1.3279591358 2.8049583809
H -3.8690846242 -0.6392544668 2.7140949723
H -3.1359507203 -3.5565620068 2.1161441916
H -3.9322885642 -2.9771569286 3.5888196016
H -4.7611994601 -2.8694769058 2.0271818577
H -3.1506741979 0.2596542699 -3.1037115423
H -3.9636111109 1.3376172798 -1.928064458
H -1.8028367284 2.416486647 -1.3917900079
H -0.9621535565 1.3742351567 -2.5524926109
H -2.1496048246 2.5543858925 -3.1206519351
*
