! pbe def2-sv(p) def2/J RI DEFGRID1 loosescf d4 GCP(DFT/SV(P)) printgap
%output
    printlevel normal
end
* xyz 0 1
C 4.521943357 1.2319446954 -1.8262715135
C 4.9604784709 0.5218602189 -0.5618207774
O 3.9362294524 -0.3389759807 -0.032781233
P 2.5755408938 0.2250327479 0.5624133364
S 2.755436062 1.8768089831 1.5930198262
O 2.0703206632 -0.9536345852 1.4801838645
C 1.5775776714 -2.2520541814 1.0764519757
C 2.5003605492 -2.9726008394 0.1193215944
S 1.2528526353 0.310078667 -1.1112210478
C 0.1360490335 1.5580046401 -0.4298939405
S -0.8897831861 0.9511808383 0.9420189114
P -2.2111044417 -0.2948057004 -0.1532074959
S -1.5979002099 -1.9862565781 -0.9106435817
O -2.7323011804 0.7814495492 -1.2160029536
C -3.2879869246 0.3745302629 -2.4829834387
C -4.6751938364 -0.2093369699 -2.3121139887
O -3.373520306 -0.557134314 0.8902221562
C -4.1116866156 0.5127023432 1.5331653863
C -5.5216182513 0.0202267436 1.7881232438
H 3.7392239777 1.9528240444 -1.5955381446
H 5.369753813 1.7588298232 -2.2521463013
H 4.1399678755 0.5168584654 -2.5505106967
H 5.2337627491 1.2473988865 0.210722698
H 5.7954383011 -0.1548592289 -0.7484255322
H 1.4798329906 -2.785052741 2.0234406692
H 0.5869866875 -2.123873795 0.6294152223
H 3.4999170499 -3.0468458197 0.5394834221
H 2.1051294226 -3.9676806757 -0.0611819724
H 2.5499492527 -2.4397430543 -0.8283431726
H -0.5011414259 1.900693204 -1.2401198501
H 0.7252801224 2.374439252 -0.0093721214
H -3.3018034117 1.2903650698 -3.0754063539
H -2.615023716 -0.3575894175 -2.9399985491
H -4.6208814899 -1.1071680124 -1.696577898
H -5.3344843427 0.5113676204 -1.8349100935
H -5.07718533 -0.4738085952 -3.2850481315
H -3.5956331276 0.7504233897 2.4660837548
H -4.1029485242 1.3909595957 0.8827966084
H -6.0183551216 -0.2105571275 0.8497558549
H -5.4945947763 -0.8784365937 2.3976041515
H -6.0786899351 0.7917912095 2.3097954056
*
