! r2scan-3c def2/J RI DEFGRID2 scfconv6 printgap
%output
    printlevel normal
end
* xyz 0 1
C 4.1202914513 -2.6833371785 0.0028371251
C 4.5035921258 -1.2775936811 0.4182559765
O 3.3641888311 -0.5048759116 0.8369704426
P 2.2292694049 -0.0430611073 -0.1753373552
S 2.8728165745 0.5280526906 -1.9414558645
O 1.4742850118 1.0542280899 0.6892214043
C 1.7653886321 2.4579500358 0.5672409963
C 3.1193105589 2.8006824154 1.152251977
S 0.8198733443 -1.6025070999 -0.1095751431
C -0.1373344146 -1.1103438658 -1.5686717767
S -0.7841162634 0.5929734536 -1.5187081098
P -2.1761541675 0.4304775375 0.0613360137
S -3.3553941021 1.9749183345 0.3012075292
O -1.2227721578 0.0844297075 1.2731566321
C -1.6340492479 0.2609543173 2.6440457488
C -2.7010469876 -0.736662243 3.0403446155
O -2.9118430643 -0.9593007607 -0.1972401339
C -4.0751311591 -1.0656917373 -1.0410561861
C -4.821888257 -2.3238435827 -0.6453186278
H 5.0207099259 -3.2613377303 -0.1789628449
H 3.5340559776 -3.1616111671 0.7834099416
H 3.528848126 -2.6535233192 -0.9111070721
H 4.9910063187 -0.7522205197 -0.4092997727
H 5.1543286135 -1.2781505317 1.2937111406
H 1.7167869479 2.732645601 -0.4923931126
H 0.9512525379 2.9466612574 1.1059431391
H 3.1856750637 2.4449286202 2.1770726758
H 3.9046428241 2.3288140035 0.5628201586
H 3.2589517183 3.8769076163 1.1306316654
H -0.9554590923 -1.8202751327 -1.6538591867
H 0.5040074776 -1.1347119377 -2.4491247212
H -0.7115923833 0.1205829714 3.2095042788
H -1.9961683173 1.2870075524 2.7668845966
H -3.6171012306 -0.5330240517 2.4876635923
H -2.3691150985 -1.74740128 2.8179505571
H -2.9020927832 -0.6449823515 4.1031558701
H -4.6903522796 -0.1704051688 -0.9018625154
H -3.7449849838 -1.1078094368 -2.082801998
H -4.1730379784 -3.1891637 -0.7446154077
H -5.157543556 -2.2530578628 0.3852613902
H -5.6833918823 -2.4437599602 -1.293887281
*
