! pbe def2-sv(p) def2/J RI DEFGRID1 loosescf d4 GCP(DFT/SV(P)) printgap
%output
    printlevel normal
end
* xyz 0 1
C 3.3694944412 -1.7504650942 1.4879517709
C 3.0045182744 -2.3542278062 0.1423009011
O 2.6942135236 -1.3085079627 -0.7974725613
C 1.4569005321 -1.1283621366 -1.1950040439
O 0.5071425165 -1.8078165899 -0.8539466317
C 1.3429195977 0.0319990114 -2.1611199924
C 0.2560765077 1.0080017526 -1.7190133148
H 0.1455878855 1.7990631005 -2.4675476336
C 0.5165348476 1.6745002612 -0.3795519773
O -0.385643701 2.1171704613 0.3039877325
O 1.7874271097 1.7194706502 -0.0842609933
C 2.1797455465 2.3240596527 1.1655081814
C 2.2405775453 3.8374151834 1.0473688519
S -1.4040349924 0.2462788208 -1.6396283925
P -1.6229307016 -0.3145961392 0.4064320933
S -0.2080144885 -0.5575870722 1.7391020824
O -2.6933663721 0.6890964803 1.0050965606
C -3.9236444319 1.0331333532 0.3463795837
O -2.5699409476 -1.5990686559 0.2405208828
C -2.1267195253 -2.9045210161 -0.1279938805
H 3.6695547849 -2.5424559371 2.1657230106
H 4.188130929 -1.0467979685 1.3703949336
H 2.5095305209 -1.233502103 1.9106615908
H 2.1388255882 -3.0157941906 0.2317441836
H 3.8494846323 -2.89090013 -0.2930566387
H 1.0707129511 -0.3671004949 -3.1397197366
H 2.3035822827 0.5422383747 -2.2162795392
H 1.4684350389 2.0132354345 1.9365198044
H 3.1614900798 1.8959681118 1.3666003769
H 2.6076326817 4.2504506618 1.9808873513
H 2.9086967016 4.123695576 0.2398736866
H 1.2486601953 4.2385355977 0.8517889462
H -4.3878068072 1.7762263974 0.9895380952
H -4.5533281527 0.1497787079 0.2530056634
H -3.7157932674 1.4529123157 -0.6381446136
H -1.8379593127 -2.9190889228 -1.177844959
H -2.9756882771 -3.5591303794 0.0533718933
H -1.2741588348 -3.197685258 0.4843030739
*
