! pbe def2-sv(p) def2/J RI DEFGRID1 loosescf d4 GCP(DFT/SV(P)) printgap
%output
    printlevel normal
end
* xyz 0 1
C 3.1448271253 2.3769179167 -1.3739982813
C 1.9554573956 1.4423789261 -1.3049074127
O 1.592059172 1.194701784 0.0747679031
P 1.9862664109 -0.1368023512 0.8381735505
S 1.5775825506 0.0327493239 2.7411109609
O 3.5111970637 -0.2950639888 0.4205326325
C 4.2778558754 -1.5112480758 0.511079915
C 4.2115535652 -2.1509844146 1.8814932367
S 1.060967818 -1.7179549684 -0.2538859839
C -0.4989668741 -1.8340442255 0.6686930157
S -1.334937701 -0.2650147481 1.005412638
P -1.9723737554 0.3105139476 -0.9536174739
S -1.4414436465 -0.8204560083 -2.4573272829
O -1.4248372729 1.7717444686 -1.1810712964
C -1.3168108001 2.838483269 -0.2062790573
C -2.5760737039 3.0581759524 0.6025918162
O -3.5340159595 0.5741675814 -0.7879387725
C -4.478954256 -0.3498289832 -0.2242754616
C -4.5970229192 -1.6311655298 -1.024276184
H 3.3664264541 2.5924903142 -2.4144559556
H 2.9198455034 3.3034417898 -0.853117234
H 4.0110652394 1.9145278625 -0.9080440936
H 2.166061619 0.4883875051 -1.7972195718
H 1.068101415 1.8871603462 -1.7607486337
H 3.9134905927 -2.2005571255 -0.2559358774
H 5.2933244965 -1.1923159495 0.269238194
H 4.5077602318 -1.4389335337 2.6481241087
H 3.1954657988 -2.4803071698 2.0939241314
H 4.8753200632 -3.0091158916 1.9099294376
H -0.3047678836 -2.2633226955 1.6500805146
H -1.1365591843 -2.4804945056 0.0688668017
H -0.4704549977 2.6093101805 0.4482545137
H -1.081356333 3.7099394243 -0.8198800734
H -3.4291928191 3.1973963795 -0.0562648588
H -2.7624423509 2.2074109598 1.2560548571
H -2.4454046807 3.9448611713 1.2157585132
H -4.1821361445 -0.5616204897 0.8075842559
H -5.4176595473 0.2070208092 -0.2300043033
H -4.8339181038 -1.4084348129 -2.061642154
H -3.6584455626 -2.1822165293 -1.0016061277
H -5.3817382325 -2.2492412268 -0.5999460971
*
