! pbe def2-sv(p) def2/J RI DEFGRID1 loosescf d4 GCP(DFT/SV(P)) printgap
%output
    printlevel normal
end
* xyz 0 1
C 2.0656646695 2.8388075441 0.3150351939
C 1.4615830187 2.0306233338 1.4470274169
O 2.2474336904 0.8427570476 1.6621385328
P 1.7369964125 -0.6329051661 1.3562207026
S 0.3542051535 -1.3475927336 2.5399288716
O 3.068357523 -1.4525846336 1.5454786971
C 4.2802957859 -1.2010027815 0.7878081968
C 4.507464306 -2.3121157691 -0.2176576868
S 1.3132147969 -0.6234578742 -0.7323273852
C -0.0867610275 -1.7782030497 -0.750977715
S -1.4966552679 -1.2218424556 -1.7514676847
P -1.9781166529 0.6431496365 -0.8473422858
S -3.7392059541 1.3561227222 -1.3182873967
O -0.7613450555 1.6196502022 -1.1451839968
C -0.6950657225 2.3946799065 -2.3560676008
C -0.3009106905 1.5491784118 -3.551431726
O -1.6762909176 0.4478205479 0.7039062941
C -2.7422325428 0.1549099894 1.6251982199
C -3.2736322053 -1.2541187242 1.4582475212
H 2.0278539076 2.2700826769 -0.6111535137
H 1.4996240446 3.7570575024 0.1956849809
H 3.1000051606 3.0812671701 0.5422713207
H 0.4268635109 1.7544680649 1.227247417
H 1.4932165956 2.5788223107 2.3908096995
H 4.202770409 -0.22853157 0.2976047737
H 5.0742927427 -1.1723768929 1.5354707665
H 5.4742605921 -2.169177983 -0.6897730199
H 4.4936183149 -3.2753119526 0.2847750003
H 3.7346827252 -2.3004411552 -0.9820374379
H -0.4017083112 -1.9401839693 0.2830862797
H 0.2252246265 -2.708948772 -1.2185260765
H -1.6681710566 2.8699083132 -2.518551262
H 0.0553933404 3.1562924304 -2.1402262279
H -1.0996339373 0.8522432874 -3.8008876581
H -0.1212147913 2.1975225585 -4.4029264444
H 0.6019261966 0.9841976111 -3.3305135599
H -2.2880037767 0.2910461057 2.6078870881
H -3.5397189943 0.8883486625 1.4718556684
H -2.4849088412 -1.9798405768 1.6428244584
H -4.0746851039 -1.4175114494 2.1718238349
H -3.6652887914 -1.3887491685 0.4500232689
*
