! pbe def2-sv(p) def2/J RI DEFGRID1 loosescf d4 GCP(DFT/SV(P)) printgap
%output
    printlevel normal
end
* xyz 0 1
C 2.4280272832 -1.7409146165 -2.8399164121
C 3.4479679156 -0.9060032109 -2.0926972626
O 3.2603247323 -0.9835295123 -0.6705974347
P 1.9635961552 -0.4073789093 0.0509791925
S 1.401730226 1.3214925698 -0.7176358991
O 2.4027771607 -0.3855726907 1.5723915929
C 2.9472140789 0.7865256662 2.2091456254
C 4.3401609369 1.0985169463 1.7043125673
S 0.7367132877 -2.1207442668 0.1035479318
C -0.4665362291 -1.7027973381 1.4170762166
S -0.7209922281 0.0696640965 1.6869764526
P -1.9575084911 0.5365061442 0.0411567453
S -2.3110781733 2.4416279089 -0.240642069
O -3.2863401896 -0.3315781212 0.2434405413
C -4.4414735469 0.1901563174 0.9165072332
C -4.2160379555 0.3090854144 2.4103454583
O -1.2427629177 -0.3211684852 -1.0818340089
C -1.8071227598 -0.5484911416 -2.3930318182
C -1.4813888866 0.5893869705 -3.3390265127
H 2.4459584211 -2.7681257205 -2.4843247464
H 1.431826152 -1.3305426209 -2.6726708257
H 2.6464361878 -1.7179987788 -3.9026725717
H 3.378444618 0.1447989877 -2.393620769
H 4.4642853955 -1.2708824262 -2.2456512787
H 2.2691940537 1.6277167862 2.0287289248
H 2.944200525 0.5329667065 3.2699392792
H 4.753176989 1.9260924073 2.2724179456
H 4.9806564006 0.22703806 1.8103405024
H 4.2965917051 1.3779181604 0.6521618529
H -0.0924423292 -2.0895631059 2.3622355133
H -1.4077774453 -2.1724091546 1.1386459644
H -4.679036529 1.1685725643 0.4865322236
H -5.2317571873 -0.5240860168 0.6813589836
H -3.9154662877 -0.6476093499 2.8292597108
H -3.4335065777 1.0416847866 2.6072224961
H -5.1336861015 0.6388299114 2.8864799803
H -1.3415301553 -1.4830620149 -2.714219665
H -2.8860866167 -0.6880316779 -2.2945467357
H -0.4095929841 0.7752010221 -3.3461404532
H -1.8103420291 0.3316645972 -4.3404862283
H -1.9799033426 1.5030507665 -3.0209995784
*
