! pbe def2-sv(p) def2/J RI DEFGRID1 loosescf d4 GCP(DFT/SV(P)) printgap
%output
    printlevel normal
end
* xyz 0 1
C 3.1118943933 -1.2804439406 -2.9995176631
C 3.8959403039 -0.4107241656 -2.0378771525
O 3.4493191049 -0.5845300097 -0.6862170359
P 2.0227099319 -0.0726468431 -0.1894673098
S 1.5723573541 1.6764321333 -0.9654007214
O 2.1786314664 -0.1713774073 1.3822194406
C 2.6434495195 0.9376717488 2.1773269924
C 4.0933355097 1.2652996335 1.8950117108
S 0.8430658177 -1.8056442792 -0.5217665025
C -0.1909686794 -1.9958631469 0.9684725946
S -1.955892357 -1.7642653288 0.6501612168
P -1.8669339867 0.3376579405 0.3639183017
S -0.8110513111 1.283546835 1.7118073315
O -3.3825722124 0.7929885636 0.2558953052
C -4.2329384772 0.9456930661 1.4097725038
C -5.0075097485 -0.3252136518 1.6974020239
O -1.334022533 0.5434497646 -1.1012445918
C -1.9612271459 -0.031503097 -2.2765176414
C -2.8870695152 0.9695520027 -2.9334842649
H 3.5138814735 -1.1703554629 -4.0013783686
H 3.1635825691 -2.3230573225 -2.6970924898
H 2.0663247827 -0.9697153777 -2.9994052819
H 3.7916505501 0.6469108222 -2.3036247939
H 4.950693962 -0.6863100242 -2.0078365108
H 1.997897247 1.8002335279 1.9806287477
H 2.4912106202 0.6012128042 3.2039577796
H 4.4282451871 2.0289072131 2.5898735746
H 4.7069097367 0.3751425251 2.0060786612
H 4.1958988098 1.6418882864 0.8780361298
H 0.1350525374 -1.2841980259 1.7262756319
H -0.0721095918 -3.0219155863 1.3057000846
H -3.616009215 1.2422758981 2.2642776984
H -4.902416998 1.7663987839 1.1456530909
H -5.6956416379 -0.1396613546 2.5158331846
H -5.5695392473 -0.6262751096 0.8179883366
H -4.3336554827 -1.1322345045 1.9752623866
H -1.123753305 -0.2889519953 -2.9284425385
H -2.4943375474 -0.9406322976 -1.9839404633
H -3.2763646375 0.5402895287 -3.8513294708
H -3.7122018081 1.2136752167 -2.2698947858
H -2.3412738745 1.880653016 -3.164863323
*
