! r2scan-3c def2/J RI DEFGRID2 scfconv6 printgap
%output
    printlevel normal
end
* xyz 0 1
C 1.4780430086 0.5708931661 3.3683e-05
C 0.6729092876 -0.7216118458 -5.863e-05
C -0.8006290305 -0.4971122861 6.97345e-05
O -1.3561072434 0.5749198085 -3.56676e-05
H 2.5424023276 0.3566286749 -0.0011081679
H 1.2376017684 1.163067094 0.8795385483
H 1.2359359935 1.1642836887 -0.8782052829
H 0.9083652853 -1.3304590212 -0.8766530161
H 0.9085855377 -1.3308185194 0.8762265732
H -1.3975190645 -1.4289831638 0.0002338175
*
