! pbe def2-sv(p) def2/J RI DEFGRID1 loosescf d4 GCP(DFT/SV(P)) printgap
%output
    printlevel normal
end
* xyz 0 1
C 2.368055354 1.7227585923 2.8878677526
C 1.3676045501 1.5761618623 1.7601396368
O 0.8987443508 0.2085866995 1.6602591378
P 1.4967088273 -0.8221612649 0.6324637433
S 0.8091145231 -2.6435650735 0.8338873079
O 3.0569647588 -0.6848719517 0.9284268108
C 4.0184225241 -1.5116482602 0.2457144232
C 5.3523983555 -1.3487582391 0.945856311
S 1.3834517867 0.0204042474 -1.3241834862
C 0.1724413157 -1.0849420677 -2.0820162682
S -1.4075279208 -0.2912585532 -2.5163032625
P -2.045638297 0.4770193828 -0.6564647876
S -3.9367095408 0.9709205531 -0.5824015656
O -1.0427754908 1.6523202319 -0.2567397385
C -1.244988785 3.0057794436 -0.7018427914
C -0.9080270714 3.1763560532 -2.1699420515
O -1.5463228996 -0.6663656132 0.3296674794
C -2.3423883291 -1.0808073126 1.4595509185
C -2.2849438776 -0.0705295009 2.5846774939
H 1.9280671184 1.3895195715 3.8238690131
H 3.2539742639 1.127319876 2.6857207937
H 2.6494171482 2.7674597939 2.9767451034
H 1.8013318037 1.8723327843 0.8011745187
H 0.4644533555 2.1594392661 1.9498717681
H 3.6711110663 -2.5494754311 0.2802166615
H 4.072608135 -1.1866096866 -0.7971193656
H 5.6660784475 -0.3094472555 0.9129520811
H 5.2705322803 -1.6614867362 1.9830676682
H 6.0935366203 -1.962926292 0.4452664074
H -0.0042052157 -1.925072605 -1.4055060099
H 0.5764658336 -1.4230693009 -3.0332745937
H -2.2872603233 3.279841306 -0.5079215591
H -0.5808801189 3.5957824525 -0.0683986728
H 0.0901797255 2.7960269775 -2.374683563
H -1.6241373954 2.6334592421 -2.7856405692
H -0.9517268397 4.2300372094 -2.4259419979
H -3.3728881313 -1.2258500568 1.1212214973
H -1.9073465401 -2.0391699255 1.7494462507
H -2.7053343875 0.8767086337 2.2486547812
H -2.865494015 -0.439501209 3.4242487252
H -1.2548907229 0.0830187183 2.8944908528
*
