! pbe def2-sv(p) def2/J RI DEFGRID1 loosescf d4 GCP(DFT/SV(P)) printgap
%output
    printlevel normal
end
* xyz 0 1
C 4.5154532458 0.3821029867 -1.3681330581
C 4.331418569 -0.9119944502 -0.6016285117
O 3.3806539976 -0.8024754484 0.4696449968
P 1.880763241 -0.2759762723 0.3415650581
S 1.6521638251 1.6720675845 0.2159995871
O 1.2661332238 -0.9408458896 1.6433169601
C 1.1779381136 -0.2287859475 2.8912189339
C 2.5460897069 0.0413053782 3.4811968314
S 1.0973263879 -1.4590134605 -1.2265164251
C 0.232302404 -0.1912049521 -2.203841497
S -1.5633254051 -0.4473871209 -2.354685567
P -2.2133358109 0.3056575111 -0.4992675877
S -4.1386430679 0.3142787677 -0.1509203172
O -1.51070168 1.7256867014 -0.5406385394
C -2.0096656154 2.8510413327 0.2092509447
C -1.7100140181 2.7177820913 1.6867420612
O -1.3420419989 -0.4753066183 0.5991110604
C -1.8663165753 -1.6586798342 1.2288584532
C -2.0497188709 -2.8033477956 0.2525963768
H 3.5964985615 0.648461797 -1.8887113324
H 4.7731508157 1.192845846 -0.6906806294
H 5.3100451695 0.2582183048 -2.0969050514
H 5.2527147216 -1.2078085147 -0.0965553976
H 4.0030851122 -1.7139041636 -1.2691012647
H 0.6347542249 0.7065886296 2.7224880961
H 0.5868370922 -0.8836836962 3.5331495488
H 2.4344718827 0.5118784699 4.453087911
H 3.0981954124 -0.8886735032 3.5871374875
H 3.105199869 0.7075080586 2.8250904799
H 0.6043981585 -0.2542366032 -3.2228377229
H 0.4266736513 0.7900933211 -1.7643886422
H -1.494662424 3.7062743864 -0.2299946406
H -3.0879673427 2.9288783181 0.0368597408
H -2.2187085485 1.8430926601 2.09063067
H -0.6381167573 2.61170585 1.8368343622
H -2.0589604141 3.6042917472 2.2063524216
H -1.1278973333 -1.9022073632 1.9930947973
H -2.8219350557 -1.3989338488 1.6950782509
H -1.1122245137 -3.0379139446 -0.2464538538
H -2.3960266336 -3.6785136527 0.7931052396
H -2.7935559521 -2.5362656831 -0.4984336487
*
