! pbe def2-sv(p) def2/J RI DEFGRID1 loosescf d4 GCP(DFT/SV(P)) printgap
%output
    printlevel normal
end
* xyz 0 1
C -0.7597695632 -1.311660205 0.024373796
C -1.3722782991 0.0342105722 -0.3844032242
C -0.7120920743 1.1732754468 0.3847534225
C 0.7597662693 1.3116464955 -0.0251143146
C 1.3658182185 -0.0453764868 -0.4056583371
C 0.7185544404 -1.1620942385 0.4060687879
H -0.8586773147 -2.0162281724 -0.8034790316
H -1.3083614171 -1.7255774204 0.8724588488
H -1.229343974 0.2027449839 -1.4533238874
H -2.4469726628 0.0239137885 -0.1952968537
H -1.2379139055 2.1107511449 0.196372574
H -0.7863867733 0.9650717857 1.4536551102
H 0.8449802461 1.9925114535 -0.8740541707
H 1.3220505017 1.7492267281 0.8018603461
H 1.2054745035 -0.2440113667 -1.4669127005
H 2.4434546646 -0.0299953161 -0.2344990032
H 1.241448818 -2.1046343719 0.2356722595
H 0.8102593306 -0.9237921153 1.4673066168
*
