! pbe def2-sv(p) def2/J RI DEFGRID1 loosescf d4 GCP(DFT/SV(P)) printgap
%output
    printlevel normal
end
* xyz 0 1
C 0.83056539 -2.723175929 -1.0455538103
C 1.1583810604 -1.457687725 -1.8102981252
O 1.1130131885 -0.2747828722 -0.9676564136
P 2.1284530128 0.0166562026 0.2084478106
S 2.5136727917 1.9170719834 0.4958481623
O 3.3856695074 -0.8622005379 -0.187068583
C 4.6143841721 -0.7750996755 0.5657912125
C 5.736929782 -1.2898420722 -0.3118653644
S 1.3682166343 -0.9596917554 1.9389339583
C -0.1318699095 0.0376697975 2.1260726204
S -1.584277065 -0.7154164854 1.3429048086
P -1.9358807693 0.5918536739 -0.3099147665
S -0.8634715879 2.2289733477 -0.3719040784
O -3.5047525464 0.851106529 -0.1942862591
C -4.0440225267 1.6963622063 0.8394343492
C -5.4803257341 2.0151784658 0.4768136308
O -1.8794209594 -0.2972744859 -1.6065969374
C -2.827013101 -1.3908938176 -1.7919173716
C -2.4363361847 -2.1543658062 -3.039135816
H 1.5973756335 -2.9244904711 -0.300633758
H -0.1282845689 -2.6295517991 -0.5403202662
H 0.7898329668 -3.5555285366 -1.7417441257
H 0.4135438962 -1.2332817036 -2.575490401
H 2.150317328 -1.5153748676 -2.2604119105
H 4.7728133487 0.269503311 0.8534617869
H 4.4985285016 -1.3813510441 1.4675799408
H 5.8277039342 -0.6741716125 -1.2025057645
H 6.6671809641 -1.2501212885 0.2450111117
H 5.5386631849 -2.3155637172 -0.6084685668
H 0.0353886192 1.0280981118 1.6902010399
H -0.3378655342 0.1029060671 3.1907093776
H -3.982912397 1.1558135704 1.788375485
H -3.4332033323 2.6032927598 0.9022181272
H -6.0573539496 1.0981427372 0.4038548792
H -5.9084610822 2.6498104321 1.2455921117
H -5.5170668118 2.5337406944 -0.4770366075
H -2.7990846591 -2.0231710643 -0.8999503801
H -3.8216075397 -0.9538928403 -1.8901696105
H -2.3736880352 -1.4752476914 -3.8847819269
H -1.4783153475 -2.6469498041 -2.9077766594
H -3.1960995984 -2.9031856413 -3.2396783546
*
