! pbe def2-sv(p) def2/J RI DEFGRID1 loosescf d4 GCP(DFT/SV(P)) printgap
%output
    printlevel normal
end
* xyz 0 1
C 5.3743952976 -0.551234396 -2.1837037396
C 3.8976769711 -0.7234303023 -1.8905620036
O 3.5757318331 0.0881991018 -0.7464218072
P 2.0634126489 0.3891565951 -0.3431934828
S 1.0259691169 1.1469851365 -1.8204552201
O 2.2575511407 1.3889354026 0.8477022445
C 2.5929300751 1.0597473921 2.2171696203
C 3.818489608 0.1805857821 2.3282666629
S 1.3755644114 -1.4863407187 0.4019022012
C -0.0050912256 -1.8220695054 -0.7340596425
S -1.6039916219 -1.99850597 0.0991151796
P -2.0851593871 0.0153376533 0.4458869726
S -0.8806640987 1.1475758585 1.4913233556
O -3.4962281535 -0.045928152 1.1628382192
C -4.6320019797 -0.7643047298 0.618966354
C -4.8305420052 -2.0767802855 1.349715192
O -2.3272582305 0.4702243253 -1.069766145
C -2.3678722818 1.8547084122 -1.4534228741
C -3.6517553476 2.5208020052 -1.0040438646
H 5.6388796682 -1.1539369298 -3.0462262575
H 5.5922527893 0.4920805023 -2.3939125788
H 5.9626854085 -0.8682705321 -1.3277292757
H 3.6576073102 -1.76344335 -1.6504860089
H 3.280433488 -0.3974963782 -2.7349838784
H 2.7505821706 2.038977948 2.6715290684
H 1.7160714597 0.5891871036 2.6706543093
H 4.6564647322 0.639431328 1.80993656
H 4.0665238201 0.0544742175 3.3776040446
H 3.6230683228 -0.7980949673 1.8921663292
H 0.1814581989 -2.7829783734 -1.2061746314
H -0.0582797994 -1.0149581381 -1.4705500157
H -5.4795006189 -0.0943235229 0.7750788187
H -4.4764757353 -0.9231706461 -0.4509876887
H -3.9851430918 -2.73991262 1.1796359583
H -4.9252699109 -1.8956641622 2.416703465
H -5.7353949062 -2.5517859196 0.9840885032
H -1.495242712 2.3620220323 -1.0289782037
H -2.2709618352 1.8320305804 -2.5399466577
H -3.66486687 3.545740187 -1.361163617
H -4.5125308287 1.989390039 -1.4016386299
H -3.7039978203 2.5252842422 0.0844956109
*
