! wb97x-v def2-tzvp def2/J RIJCOSX DEFGRID2 scfconv7 GCP(DFT/TZ) printgap
%output
    printlevel normal
end
* xyz 0 1
C 0.9534544532708524 0.8164323766757442 0.09747615320939836
C -0.3369453018094762 0.03985923860803444 0.014986880565652647
F -1.3953762390207562 0.8713413784397807 0.16276513555129135
F -0.4347533264192491 -0.9112860102742388 0.9753488188547681
F -0.4850506095509476 -0.5929746881546444 -1.1745381025366644
O 2.0192147404470777 -0.10853526253988234 -0.06647718734050675
H 0.9305709060919864 1.5751207382028205 -0.6954388189334147
H 0.9771219807047945 1.3133029689304703 1.0758180162805497
H 2.843147876643864 0.39156090260398047 -0.004751222057854948
*
