! pbe def2-sv(p) def2/J RI DEFGRID1 loosescf d4 GCP(DFT/SV(P)) printgap
%output
    printlevel normal
end
* xyz 0 1
C 3.4323273588 -0.8384273666 -3.0655761406
C 2.1648603275 -0.4978240422 -2.3111013449
O 2.4579264196 0.3625833654 -1.1832626977
P 2.6104903673 -0.1667394201 0.2920327523
S 3.1055642868 1.2658424379 1.5250168519
O 3.6562241464 -1.3539954575 0.1374261587
C 4.3919427876 -1.8906263508 1.2532357297
C 3.4979455287 -2.607468787 2.243791238
S 0.775780796 -1.1465560108 0.7274432311
C -0.0490415936 0.3378300706 1.4070325229
S -1.8198861723 0.0856309852 1.546083557
P -2.3927270975 0.763052972 -0.409485302
S -0.9545141725 1.0888801042 -1.6944245549
O -3.1708503926 2.1130671061 -0.1750403162
C -4.3031921414 2.2403114198 0.7206424344
C -5.6070413917 2.1531444101 -0.0460101154
O -3.5616618496 -0.23043389 -0.8163852471
C -3.4856320467 -1.6692492604 -0.7880911394
C -2.2869085667 -2.2091700502 -1.5385958351
H 3.1736285652 -1.4196269802 -3.9449141239
H 3.936732779 0.0734534488 -3.3731141289
H 4.1024161512 -1.4164252066 -2.4346909548
H 1.662808694 -1.3988744423 -1.9474753678
H 1.4691614205 0.0817254034 -2.9217560318
H 5.1051621883 -2.5725558226 0.7880719437
H 4.9250859752 -1.0681395709 1.739695982
H 2.8784458685 -3.3412323214 1.7342572371
H 4.1148010299 -3.1068189416 2.9840149282
H 2.8521814596 -1.8918339897 2.7501501739
H 0.1502533959 1.1780979077 0.739098507
H 0.3376177313 0.5309240569 2.4053385142
H -4.2370875041 1.4631176049 1.487472918
H -4.1777307019 3.2222828102 1.1804059339
H -6.4327407443 2.3140899783 0.6399633805
H -5.6324134385 2.9124071652 -0.8228638817
H -5.7088821981 1.175894177 -0.509580778
H -3.4625252757 -1.9875345114 0.2576385621
H -4.4216896038 -1.9833410195 -1.25305253
H -2.3440726493 -3.2920962075 -1.5776137708
H -2.2622924175 -1.8116747929 -2.5505997007
H -1.3653135182 -1.9248298266 -1.0314214104
*
