! pbe def2-sv(p) def2/J RI DEFGRID1 loosescf d4 GCP(DFT/SV(P)) printgap
%output
    printlevel normal
end
* xyz 0 1
C 5.4309980942 -0.4731092714 -0.7736268199
C 4.1000698812 -0.0965624653 -1.3903625469
O 3.2828865007 0.634383547 -0.4390058449
P 2.2033212167 -0.0448846419 0.4834057105
S 1.4867295382 1.1911842195 1.8175016332
O 2.9495129902 -1.3125049836 1.0780808969
C 2.2962084856 -2.1720020054 2.0359698618
C 3.3630323668 -3.0019664084 2.7205875846
S 0.8156470286 -0.9744258975 -0.86081704
C 0.2376563883 0.5180340436 -1.7119309264
S -0.8567085883 1.5667915925 -0.723363013
P -2.6107720921 0.3422498547 -0.7451544762
S -2.6061666591 -1.0647422926 -2.1047402843
O -3.8325690476 1.3041965863 -0.9894015424
C -4.394093428 2.2354739326 -0.0329549949
C -3.418914738 3.3244622318 0.3611586003
O -2.8547445315 -0.0681890577 0.7756052334
C -1.9430160344 -0.7882607255 1.6179473017
C -1.8897924345 -2.2638275083 1.2759347852
H 6.047936249 -0.9521416051 -1.5275724118
H 5.9366770743 0.4164082609 -0.4080261733
H 5.2811429349 -1.157561967 0.0566264291
H 3.552794397 -0.9825490079 -1.723117255
H 4.2314129125 0.5955647444 -2.2243085222
H 1.7539461233 -1.5453139049 2.7516855281
H 1.5846636291 -2.8011138346 1.4944745838
H 3.9011706509 -3.5960757263 1.9877732657
H 4.0659931381 -2.3542244467 3.2367878203
H 2.8914886175 -3.6626689842 3.4404374815
H -0.3020742336 0.1631586624 -2.5900518531
H 1.0872113842 1.1394650517 -1.985567597
H -5.2561818082 2.6428675482 -0.5633956375
H -4.7259034214 1.6708847393 0.8400821244
H -3.0427947245 3.8360900467 -0.5213225309
H -3.9258783705 4.0406854197 1.0004057395
H -2.5741712696 2.9053342119 0.9066528994
H -0.9518609498 -0.3256910105 1.5515036419
H -2.3380913491 -0.6298066177 2.6234746435
H -2.8916206043 -2.684920044 1.2921009693
H -1.4684294139 -2.4131808914 0.2836078197
H -1.2721157747 -2.7766268342 2.0065299475
*
