! pbe def2-sv(p) def2/J RI DEFGRID1 loosescf d4 GCP(DFT/SV(P)) printgap
%output
    printlevel normal
end
* xyz 0 1
C 5.2750229303 -2.5388346051 -1.333433016
C 4.2464039974 -1.4519188161 -1.5717119569
O 3.2768585152 -1.51978042 -0.5068731895
P 2.3148732506 -0.3033225893 -0.1618474817
S 3.2226738306 1.4339281642 -0.0276792084
O 1.6036792966 -0.8437532969 1.1427492914
C 2.1184758357 -0.5847636678 2.4723704481
C 1.2382018512 0.4242608094 3.1818209624
S 0.7696332373 -0.4670184785 -1.5876382939
C 0.1076632667 1.2087240743 -1.3618970624
S -0.6827634572 1.439342831 0.2427557286
P -2.57233279 0.5224730353 -0.2013232977
S -2.9672687269 0.2416309715 -2.0951088544
O -3.6353837333 1.488575472 0.4362064869
C -3.5851626911 1.9555168765 1.8083380738
C -4.4730400456 1.1111828425 2.6992595857
O -2.6453282196 -0.7284938616 0.7842077393
C -1.7466133628 -1.849633418 0.7947998344
C -1.9366563357 -2.7584245704 -0.4027921625
H 6.0028327629 -2.5226389587 -2.1379677998
H 5.7822771352 -2.3734765839 -0.3871906712
H 4.7876802508 -3.5090731838 -1.3073181248
H 3.7222509945 -1.598628633 -2.5197815253
H 4.7035319334 -0.4564948892 -1.5647558219
H 2.1088928379 -1.5534703789 2.9739051865
H 3.1459877415 -0.2190790555 2.3953650352
H 0.2110050781 0.0719763899 3.211853146
H 1.6012949226 0.5644742853 4.1947360939
H 1.2640268482 1.3772614572 2.6572875314
H -0.6232627374 1.3622907781 -2.1562798454
H 0.9244444774 1.9279605873 -1.4164332336
H -2.5460471662 1.9429799247 2.1487837108
H -3.9399973543 2.9862806215 1.7562529482
H -5.4916185733 1.1192371105 2.3213150826
H -4.1189488406 0.0844869638 2.7241064541
H -4.4598703662 1.5215813063 3.704118065
H -0.7167375594 -1.4834879973 0.8450039054
H -1.9930837763 -2.3682267698 1.723639939
H -1.6562293013 -2.2462166021 -1.3212929109
H -1.3089114809 -3.6361791876 -0.2868709166
H -2.9765882103 -3.0649551672 -0.4808468827
*
