  8
        -23.49723439
 C          0.7017807797       -0.0002549987       -1.1794690341
 C         -0.3688177850       -0.0000199372       -0.1091813816
 Cl        -1.9660440311        0.0014725025       -0.8935681350
 Cl        -0.2498230030       -1.4448374030        0.9238313419
 Cl        -0.2479988907        1.4434861863        0.9255117925
 Cl         2.3157312011        0.0000069397       -0.4173109419
 H          0.6211751517        0.8972171697       -1.7924911151
 H          0.6216365094       -0.8984511568       -1.7915417890
