! r2scan-3c def2/J RI DEFGRID2 scfconv6 printgap
%output
    printlevel normal
end
* xyz 0 1
C 5.2538303458 -1.5754872634 -0.9827558301
C 4.2357161493 -0.4881418172 -1.2635314838
O 3.1572242624 -0.6351761122 -0.3207264633
P 2.2110733953 0.5866639405 0.0741993911
S 3.1205691384 2.2996762227 0.3413284547
O 1.4173815972 0.0027923643 1.3103298835
C 1.9063360465 0.1468528175 2.6632205649
C 3.1927461084 -0.6189303416 2.8836126169
S 0.6979260675 0.577927724 -1.4045099079
C 0.1722705756 -1.1609295777 -1.2596620123
S -0.9459057004 -1.4780502631 0.1268493644
P -2.4414495636 -0.0668814498 -0.4249501004
S -2.7925626447 0.1322482563 -2.3364466931
O -1.9923676184 1.2951329372 0.2397564796
C -1.6945702304 1.4517922992 1.6458698557
C -2.8956399608 1.9836297107 2.399642935
O -3.689508828 -0.4864163115 0.4674659814
C -4.6665793242 -1.4483851662 0.0269836533
C -4.0869257195 -2.8412927442 -0.1077286994
H 4.7884233869 -2.5531577795 -1.0662417552
H 6.061019316 -1.4994991428 -1.7038408355
H 5.6580774318 -1.4616820899 0.019001431
H 3.8244616906 -0.575967126 -2.273090546
H 4.6709501203 0.5099174029 -1.1442860211
H 2.0509930284 1.2125710729 2.8654703587
H 1.092057663 -0.2444997845 3.2743369893
H 3.0682357446 -1.656487356 2.5856234959
H 3.9923783692 -0.1725962746 2.2941673599
H 3.4620660127 -0.5727721694 3.9341876462
H 1.0396225391 -1.8003610624 -1.1169184838
H -0.3443647349 -1.3819213402 -2.1928147793
H -1.3686957671 0.4878319327 2.0480746672
H -0.8615137341 2.1593031775 1.6708694244
H -3.7083982202 1.2632655646 2.3670415124
H -2.6142053009 2.1640553723 3.4324058798
H -3.2321991439 2.9144489391 1.9513061702
H -5.4376848356 -1.405534007 0.7974991063
H -5.0756603363 -1.1077557388 -0.9289142429
H -3.3805063559 -2.8719489976 -0.935493692
H -3.5722092551 -3.1285934558 0.8056146228
H -4.8902827789 -3.5434685652 -0.3061050022
*
