! pbe def2-sv(p) def2/J RI DEFGRID1 loosescf d4 GCP(DFT/SV(P)) printgap
%output
    printlevel normal
end
* xyz 0 1
C 4.5488054748 1.5073751757 0.1761906672
C 3.4206250465 1.2530854581 -0.8027036439
O 2.7671173074 -0.0003579762 -0.5309796383
P 1.771811755 -0.1831881156 0.7093300147
S 0.9691855144 1.4581434569 1.4010617087
O 2.5887630254 -0.8629165189 1.8861890667
C 3.4024616262 -2.050179104 1.7222369824
C 2.7179427331 -3.2505268094 2.3445575758
S 0.6346372552 -1.7982852476 -0.0636573113
C 0.3133474331 -1.1993487505 -1.749399159
S -0.1857659098 0.5388795572 -1.832646942
P -2.1045231966 0.2925402375 -1.0058591082
S -3.2257559454 -1.1142777139 -1.759137331
O -2.7839179978 1.7137566418 -1.1692736927
C -2.2173073571 2.9285737947 -0.6095023404
C -3.2639808943 3.6081909776 0.2493055398
O -1.71719015 0.1316641634 0.5369095033
C -2.688144175 -0.3001293748 1.5143411132
C -2.514458195 -1.7727162305 1.8258869767
H 5.0428695751 2.4397200501 -0.07785006
H 4.1468829834 1.5839672611 1.1862596653
H 5.2709693382 0.6957704824 0.1425960633
H 3.7826162471 1.1500195483 -1.8264414481
H 2.6755406463 2.0532403832 -0.7523150263
H 3.5956524681 -2.2088856215 0.6586406017
H 4.3365475067 -1.8185884397 2.2371490532
H 2.4918359323 -3.0491520173 3.3879297952
H 1.7907466676 -3.4731134524 1.8205850386
H 3.3781693539 -4.1095346747 2.2796933052
H -0.4869606162 -1.8251328027 -2.1473535573
H 1.2198124644 -1.2895812632 -2.3425889831
H -1.3255587373 2.6828837952 -0.024857524
H -1.9348412861 3.548669819 -1.462013705
H -3.5189332884 2.9827843286 1.1013478006
H -2.8665078151 4.5519048336 0.6086536702
H -4.1616135021 3.7911671745 -0.3347995167
H -2.489036765 0.319996121 2.3910253334
H -3.6941888751 -0.0958388387 1.1340913222
H -2.7016585836 -2.368967866 0.9353397066
H -1.5005248201 -1.9637636858 2.1678733527
H -3.2176067557 -2.0581828148 2.6015326565
*
