! pbe def2-sv(p) def2/J RI DEFGRID1 loosescf d4 GCP(DFT/SV(P)) printgap
%output
    printlevel normal
end
* xyz 0 1
C 3.9748507826 2.1836241253 0.2496736258
C 2.5924695783 2.1345757738 0.8642057459
O 1.8399900312 0.9895413063 0.4108837796
P 2.2402666728 -0.4936266559 0.7987756166
S 2.9922149543 -0.7620997184 2.58558652
O 3.2083156208 -0.8898278869 -0.4111878748
C 4.0978082649 -2.0134374143 -0.3292657845
C 3.3517457592 -3.332350994 -0.3701125154
S 0.4010104932 -1.4510132949 0.3747921735
C 0.1609761404 -0.8061874593 -1.31113136
S -0.6377890647 0.8131329336 -1.3632556798
P -2.6230870467 0.1920817081 -0.8614001062
S -2.9839448524 -1.7248202158 -0.9944933821
O -3.5389985207 1.0310794549 -1.8239405907
C -3.4052863641 2.4539559841 -2.0706635555
C -4.2046064068 3.2678473001 -1.0744447732
O -2.9523306624 0.8399080038 0.5607114656
C -2.4819949484 0.3017668598 1.8072429837
C -1.3349662306 1.1339411642 2.3487413957
H 4.5708831304 1.3466262178 0.6109918856
H 3.9076134903 2.1285899741 -0.8336201436
H 4.4615554592 3.1109629139 0.535153533
H 1.9805651679 2.982634279 0.5541103023
H 2.6558776404 2.0947288807 1.9559791795
H 4.7570278038 -1.8952239247 -1.1904343713
H 4.6750432292 -1.9314428818 0.5973888358
H 2.7298790168 -3.3949854974 -1.2597697071
H 4.0658986162 -4.1495440415 -0.3751331091
H 2.7155816853 -3.4267046039 0.5099639323
H -0.4722977893 -1.533325688 -1.8184468676
H 1.1261137606 -0.6961596241 -1.79825774
H -2.344363799 2.7171985715 -2.0401175125
H -3.7876664002 2.5797962441 -3.0850730132
H -5.245589748 2.9567163323 -1.0897348294
H -3.8141532784 3.1297909266 -0.0702050634
H -4.1403410023 4.3176424932 -1.3434435957
H -3.3433345247 0.3387590851 2.477130246
H -2.1855472149 -0.7428726651 1.6634296815
H -0.4918278588 1.120026547 1.6610371352
H -1.6514468846 2.1632397136 2.490556004
H -1.0131467271 0.7211015813 3.3000057602
*
