  15
        -19.05156597
 C         -2.4398519108       -0.0006406811        0.0062172673
 C         -0.9413619153       -0.0033466662       -0.0085109193
 C         -0.2291494274       -1.1960578350       -0.0049209886
 C          1.1549287519       -1.1949721893        0.0015130551
 C          1.8490594538        0.0026693560        0.0047084854
 C          1.1497788731        1.1980480182        0.0015722872
 C         -0.2334724600        1.1931763724       -0.0049569841
 H         -2.8331131764       -0.9425845893       -0.3670699458
 H         -2.7995715000        0.1387753874        1.0255890863
 H         -2.8294763950        0.8131314295       -0.6008041761
 H         -0.7638223243       -2.1352452957       -0.0087966655
 H          1.6930591467       -2.1315941333        0.0025055349
 H          2.9288745549        0.0049835652        0.0074507154
 H          1.6844138898        2.1366706811        0.0021464810
 H         -0.7735413751        2.1292521977       -0.0088547052
