! r2scan-3c def2/J RI DEFGRID2 scfconv6 printgap
%output
    printlevel normal
end
* xyz 0 1
C 5.417779063 -1.2806660492 -0.4430577091
C 4.7207947114 -1.8636239213 -1.6618706667
O 3.3642747062 -2.2183431768 -1.3318669737
C 2.4009167512 -1.3636192891 -1.6052069452
O 2.5463062608 -0.3165345017 -2.1985992056
C 1.0542378738 -1.8825782875 -1.1304083998
C 0.2770347469 -0.7243059375 -0.5231702504
H 0.1568141536 0.0767749142 -1.2676238404
C 1.0339316508 -0.1061961499 0.6368123858
O 2.2334043201 -0.1941028868 0.7624663482
O 0.230720819 0.5372835685 1.4579476976
C 0.8112117876 1.2808776806 2.5493148995
C 1.1962661999 2.6796628442 2.1003839585
S -1.3902999872 -1.239406199 -0.0082925339
P -2.2694688772 0.693608428 0.1884425445
S -1.4359264054 2.1517960014 -0.8175887056
O -3.7871750793 0.3947916228 -0.2307044444
C -4.1387805145 0.0917901853 -1.5844101995
O -2.4686925695 1.0123039632 1.721438601
C -3.1583504178 0.1051840226 2.6049375683
H 4.8743685106 -0.4049238869 -0.0942142084
H 5.443826718 -2.012868104 0.358710475
H 6.4304946153 -0.9938842573 -0.7058703875
H 5.1871309864 -2.7959814276 -1.9822762559
H 4.7015260767 -1.1426642052 -2.4841584724
H 1.2143181372 -2.6788070162 -0.4047584066
H 0.5093726143 -2.2781652906 -1.9886224288
H 0.0268367388 1.3086467711 3.3054400764
H 1.6831581204 0.7291230179 2.9110162457
H 1.9782474473 2.6313635795 1.3452535524
H 0.3327925775 3.1840125965 1.6722648182
H 1.5581504328 3.2454112671 2.9521490864
H -3.695359118 0.8238385245 -2.261373996
H -5.2235935806 0.1468965783 -1.624997911
H -3.7946854384 -0.9099703665 -1.8411994525
H -2.6738710631 -0.8711106589 2.5876383722
H -4.19885259 0.0102264403 2.3013385516
H -3.0845509485 0.5566184861 3.5908666446
*
