! pbe def2-sv(p) def2/J RI DEFGRID1 loosescf d4 GCP(DFT/SV(P)) printgap
%output
    printlevel normal
end
* xyz 0 1
C 5.2140076092 -1.2650913784 -0.3993396718
C 4.6100039894 -0.4135184983 -1.4955480757
O 3.1880479362 -0.2432138487 -1.3154038258
P 2.6013324229 0.6222796874 -0.1232931759
S 3.6603354859 2.1605041592 0.4645577255
O 2.3503866972 -0.496683305 0.9803401084
C 1.9311058032 -0.146423837 2.3154821436
C 1.5684731725 -1.429284793 3.0338641065
S 0.6871131346 1.062414831 -0.9062448564
C 0.0824078206 -0.6548248029 -1.0624446646
S -0.9958409859 -1.1297552973 0.2966885533
P -2.7305455693 -0.1133497423 -0.4203427975
S -2.9704574108 -0.2471182644 -2.3617703383
O -2.6594024862 1.414488162 -0.0365916548
C -2.846225396 1.992433363 1.2772020291
C -1.6450543921 1.7749808656 2.1745784026
O -3.8831451504 -0.6354647732 0.5367058561
C -4.1239999167 -2.0179456369 0.8656969236
C -4.3321751578 -2.8825197231 -0.3594537529
H 5.1340760133 -0.7455500502 0.554564688
H 4.6928007638 -2.2160175577 -0.328968482
H 6.2623953593 -1.4417774913 -0.6182406477
H 4.6935999261 -0.886559781 -2.4748683165
H 5.0768959113 0.5761923793 -1.5180822314
H 2.7560589569 0.3806841486 2.8033820545
H 1.0739551588 0.5296247796 2.2527774059
H 1.2622483262 -1.1937381428 4.0474550951
H 0.7519719281 -1.9237291947 2.5136261004
H 2.4255403843 -2.0951055946 3.0626749711
H 0.9290432701 -1.3346226653 -1.0739691503
H -0.4867317635 -0.7059891228 -1.9927462344
H -2.9949766959 3.0520351862 1.0631825377
H -3.7512055342 1.5702953506 1.717081577
H -1.7796050131 2.3435099899 3.0895522333
H -1.5392063669 0.7214954932 2.4243742384
H -0.7424060595 2.1206792808 1.6734366322
H -3.2778204769 -2.3800851031 1.4554370705
H -5.0220088681 -1.9801432653 1.484788909
H -5.1324008508 -2.4810762054 -0.9767212951
H -3.4226073195 -2.9135461703 -0.9574339694
H -4.5877795327 -3.8908011574 -0.0502433545
*
