! pbe def2-sv(p) def2/J RI DEFGRID1 loosescf d4 GCP(DFT/SV(P)) printgap
%output
    printlevel normal
end
* xyz 0 1
C 5.1254159913 -2.9838355881 -0.9102060116
C 4.5260866209 -1.8871710343 -0.0437368459
O 3.086963853 -1.9141326271 -0.0923555139
C 2.484083422 -1.2847100876 -1.0778506932
O 3.0485010811 -0.6941560469 -1.9743151729
C 0.9739038819 -1.4144647084 -0.980109574
C 0.3577205163 -0.0595833986 -1.3032861713
H 0.7144360089 0.2599107226 -2.291126578
C 0.8354244143 1.0011561135 -0.3287636136
O 1.9105173767 0.9301298352 0.2204864307
O 0.008493617 2.0254359279 -0.248792654
C 0.4371127109 3.1883222655 0.493294749
C 0.2185652136 3.0364579547 1.9881950742
S -1.4488777326 -0.1061333791 -1.4678302159
P -2.0523745623 0.1055823415 0.5610633475
S -0.7848443105 -0.4479088263 1.9483220059
O -2.5902528099 1.5751187664 0.7702789586
C -3.5796087567 2.1591219337 -0.1012469386
O -3.4321733248 -0.7044905227 0.5647827419
C -3.4577824988 -2.1319889708 0.4534693298
H 4.7351039006 -3.9520601473 -0.6093066448
H 4.8798322982 -2.8091260268 -1.9550860218
H 6.2042646578 -2.9799604433 -0.7957533145
H 4.862620615 -0.899844765 -0.3729800365
H 4.7626189248 -2.0348152161 1.0100629795
H 0.7141504657 -1.746078199 0.0258226731
H 0.6389521132 -2.1514476702 -1.7115275961
H 1.4969693842 3.3498048062 0.2764956501
H -0.1676271746 3.9964816171 0.0817214109
H 0.8233858 2.2193711472 2.3766118698
H 0.5075703917 3.9570552076 2.4840952026
H -0.826402348 2.8236542062 2.2000810746
H -4.5173578737 1.6145459261 -0.0132731736
H -3.2263796828 2.1341911945 -1.1319871547
H -3.6931976346 3.1835648634 0.2432327692
H -3.2136458677 -2.4276468289 -0.5664580384
H -4.4731487944 -2.4268286725 0.7057070447
H -2.7480703341 -2.5760497111 1.153083639
*
