! r2scan-3c def2/J RI DEFGRID2 scfconv6 printgap
%output
    printlevel normal
end
* xyz 0 1
C 3.66045167 1.9983502646 1.3671498954
C 2.6224235051 1.7036478985 0.3051241693
O 1.6476729753 0.7442478904 0.7915928638
P 1.7321927083 -0.8026004131 0.5249035273
S 0.2471882042 -1.7833063535 1.3371697737
O 3.1744543393 -1.1832228307 1.0658035392
C 3.6369621242 -2.5503809486 1.0564346431
C 4.8707430012 -2.6285026262 1.9321221817
S 1.9594406247 -1.0755723021 -1.5729304647
C 0.2357625072 -0.8210043766 -2.0429600792
S -0.2952281528 0.9142560854 -1.8447495904
P -1.8805189685 0.6994161302 -0.4757156504
S -2.8097448209 -1.0308689604 -0.4988385124
O -2.7636471404 1.9753069642 -0.8280793966
C -3.572667113 2.047691841 -2.0188950165
C -5.0044204879 1.6428571826 -1.7257465732
O -1.2324508798 1.1685747322 0.8874297135
C -1.8302190765 0.8777965676 2.1659622781
C -3.1591480461 1.5800888948 2.3382836654
H 4.3373098792 2.7617234337 0.9963181995
H 3.1778490241 2.3553368983 2.2728016934
H 4.2244682711 1.0995713875 1.6011458055
H 3.0843541457 1.3095095403 -0.6045344361
H 2.0296315573 2.5878796536 0.0622657706
H 2.8331982515 -3.191167755 1.4333112716
H 3.8600971233 -2.8269343246 0.0226613069
H 4.6277626113 -2.3282553345 2.947521857
H 5.2363393176 -3.6499671011 1.9391289352
H 5.6447574518 -1.9728282023 1.5441974633
H -0.4167591556 -1.4590167814 -1.439508027
H 0.1681492695 -1.0757732147 -3.0973617118
H -3.5095939743 3.0916939543 -2.3310571633
H -3.1362527996 1.4088709147 -2.7921530534
H -5.5999901609 1.7601256965 -2.6252046876
H -5.0430698277 0.6028627464 -1.4087164952
H -5.4159666015 2.2671075216 -0.9375762104
H -1.9438123556 -0.2079116433 2.2566843669
H -1.0838082822 1.2228576162 2.8831224098
H -3.8800285369 1.1801508267 1.6259271399
H -3.5261077608 1.4107754487 3.3457620394
H -3.0448084308 2.6468267292 2.1641157619
*
