  19
  -38.9571153500000       0.327111102997441      !mtd2
 C         -3.8067032155       -0.0998448708       -0.3467166994
 C         -2.9322194043       -1.1416199149       -0.5958644888
 C         -1.5790205057       -1.0088558124       -0.3214096054
 C         -1.1128144503        0.1861701581        0.1996535599
 C         -1.9836175346        1.2364849983        0.4592616891
 C         -3.3301467540        1.0878956251        0.1864479942
 O          0.2298620256        0.4255541797        0.5213518706
 C          1.1887805373       -0.3696340853       -0.0126419183
 H          1.0197590928       -0.6507570051       -1.0633208685
 C          2.5387905570        0.3425071784        0.1548738874
 F          2.5292542097        1.4916479816       -0.5584994538
 F          3.5355225248       -0.4153363224       -0.3591761991
 F          1.2835854396       -1.5740641239        0.6885987657
 H         -4.8570828832       -0.2134226172       -0.5622920036
 H         -3.2962340403       -2.0720127448       -1.0022208183
 H         -0.9139729028       -1.8397539195       -0.4975774145
 H         -1.5856009608        2.1492059447        0.8707014647
 H         -4.0068468411        1.9029847812        0.3874944530
 H          2.7657025970        0.5730317038        1.2030268185
  19
  -38.9571152900000       0.327090334818126      !mtd8
 C         -3.8067835971       -0.0981156024       -0.3468682149
 C         -3.3303159034        1.0864962983        0.1932509490
 C         -1.9837930054        1.2336112744        0.4669053884
 C         -1.1128978015        0.1849253354        0.2011904138
 C         -1.5790463685       -1.0070572011       -0.3268904571
 C         -2.9322107257       -1.1383330781       -0.6021434237
 O          0.2297444401        0.4224542099        0.5242327663
 C          1.1887631268       -0.3692378188       -0.0148692847
 H          1.0193277443       -0.6442881989       -1.0670636626
 C          2.5384202971        0.3426039825        0.1562267133
 F          2.5289909154        1.4941436193       -0.5534062418
 F          3.5359165997       -0.4130575244       -0.3594642458
 F          1.2842563890       -1.5777169665        0.6793290928
 H         -4.8571505525       -0.2106261906       -0.5630080303
 H         -4.0070927180        1.9003439160        0.3990356242
 H         -1.5859865000        2.1440139030        0.8836471195
 H         -0.9138967089       -1.8368661088       -0.5078915222
 H         -3.2961885922       -2.0663793909       -1.0138784325
 H          2.7643483003        0.5698155226        1.2052867759
  19
  -38.9558395100000       8.479296429564355E-002 !mtd5
 C         -3.3250502440        0.6960625360       -0.3305237944
 C         -2.9435875536       -0.2842198332       -1.2326718503
 C         -1.7254040395       -0.9227036719       -1.0914892846
 C         -0.8890370008       -0.5791283776       -0.0380271325
 C         -1.2671358204        0.3899770969        0.8778765321
 C         -2.4885958010        1.0266885774        0.7205739401
 O          0.3053897318       -1.3151387280        0.0503206758
 C          1.4452486876       -0.7406312102        0.4988158958
 H          2.2608474510       -1.4579468014        0.3400254704
 C          1.7888983504        0.6105337596       -0.1630059758
 F          1.6956860318        0.4801903090       -1.5071341376
 F          3.0765653242        0.9359044853        0.1025838919
 F          1.4086615206       -0.5051654575        1.8751119037
 H         -4.2732023191        1.1968946545       -0.4438581776
 H         -3.5922069700       -0.5510791496       -2.0516767554
 H         -1.4043125749       -1.6870645370       -1.7796531748
 H         -0.6360518091        0.6402251591        1.7161743791
 H         -2.7825723885        1.7814424299        1.4327969687
 H          1.1467214356        1.4408795305        0.1559142586
  19
  -38.9558393300000       8.477681488836429E-002 !mtd11
 C         -3.3334532042        0.1020683594        0.7344611244
 C         -2.4708453374       -0.9734922219        0.8474670752
 C         -1.2456008624       -0.9670449286        0.1986851839
 C         -0.8905168650        0.1368126192       -0.5604759203
 C         -1.7528893624        1.2176404140       -0.6851422388
 C         -2.9744055326        1.1951636287       -0.0379290834
 O          0.3051005160        0.2307967377       -1.2936971403
 C          1.4556353373       -0.3018729926       -0.8216002642
 H          2.2660510133        0.0198185091       -1.4885188412
 C          1.7880539060        0.0737043767        0.6380310038
 F          1.6607755909        1.4127701282        0.7892980527
 F          3.0834539519       -0.2210312975        0.9025696757
 F          1.4498641492       -1.6975433284       -0.8762290767
 H         -4.2846133680        0.0867105318        1.2421611917
 H         -2.7469767142       -1.8322269781        1.4387894132
 H         -0.5937396260       -1.8230969607        0.2755912362
 H         -1.4489795848        2.0555315356       -1.2905015880
 H         -3.6434373147        2.0351923489       -0.1351349760
 H          1.1577502589       -0.4270336473        1.3834868001
  19
  -38.9549890600000       3.447625300046107E-002 !md6
 C         -3.7585843475       -0.1062380940       -0.3169976834
 C         -2.9519510807       -1.2277052646       -0.2597987140
 C         -1.5833345742       -1.1052016466       -0.0697427889
 C         -1.0329034528        0.1591580876        0.0557249689
 C         -1.8354272321        1.2918783718        0.0065374692
 C         -3.1977711288        1.1541096465       -0.1779763116
 O          0.3305114870        0.4007336282        0.2539618576
 C          1.2222376914       -0.5832727910       -0.0078711941
 H          1.0041641183       -1.1643368752       -0.9184517231
 C          2.6383514430        0.0082195037       -0.1102161628
 F          2.8139027817        1.0274664857        0.7575292122
 F          2.8197828662        0.5248767329       -1.3501590940
 F          1.2537412410       -1.5231791015        1.0290353468
 H         -4.8215492364       -0.2122451013       -0.4636682323
 H         -3.3816149219       -2.2121210316       -0.3578014424
 H         -0.9727944352       -1.9918264168       -0.0015384085
 H         -1.3719162258        2.2584902331        0.1160562862
 H         -3.8210471659        2.0332428776       -0.2160895853
 H          3.4133826301       -0.7475598338        0.0749744195
  19
  -38.9549889700000       3.447296972341962E-002 !md2
 C         -3.7511866421       -0.3948738848       -0.0966000858
 C         -3.1159512302       -0.3366683237       -1.3275745280
 C         -1.7514576738       -0.1303973042       -1.3962276077
 C         -1.0219542589        0.0221621335       -0.2240691850
 C         -1.6473428253       -0.0221163231        1.0105493153
 C         -3.0169716623       -0.2352615356        1.0640896963
 O          0.3496588857        0.2349080248       -0.3969092726
 C          1.1840607857        0.0630787576        0.6549299518
 H          0.9458660644       -0.8076760435        1.2868797371
 C          2.6349899332       -0.0521660441        0.1575409153
 F          2.8576129077        0.7433772875       -0.9102441569
 F          2.8675820051       -1.3219136553       -0.2554803064
 F          1.1413321776        1.1652732850        1.5167674827
 H         -4.8156225819       -0.5588511101       -0.0442421481
 H         -3.6823311976       -0.4552949820       -2.2374903162
 H         -1.2310599872       -0.0820393267       -2.3385905783
 H         -1.0945162972        0.1266492139        1.9247588060
 H         -3.5050958965       -0.2698505251        2.0252477709
 H          3.3596883448        0.2030394165        0.9422459643
  19
  -38.9547168000000       2.584627889436139E-002 !md7
 C         -3.8803649514       -0.0823912129       -0.0048156414
 C         -3.3154705130       -1.2858817452        0.3885107975
 C         -1.9417233644       -1.4275664712        0.4309582624
 C         -1.1307494570       -0.3579392148        0.0730344762
 C         -1.6837301904        0.8447486195       -0.3321668901
 C         -3.0646052735        0.9742129194       -0.3649660799
 O          0.2463772980       -0.6040506900        0.1475788541
 C          1.1105385743        0.4419215036        0.0991845710
 H          0.8065297580        1.3115486615        0.7039545710
 C          2.4873205407       -0.0547000772        0.5671538225
 F          3.3097827198        0.9972881176        0.8015193482
 F          3.0862076018       -0.8044547788       -0.3837505705
 F          1.2373884020        0.9254215186       -1.2020607732
 H         -4.9524752751        0.0283297837       -0.0352732311
 H         -3.9449276480       -2.1162630026        0.6659211170
 H         -1.4764869440       -2.3513193870        0.7325192695
 H         -1.0640457799        1.6717477937       -0.6410888321
 H         -3.4956858609        1.9110272147       -0.6809447891
 H          2.4068327596       -0.6525438052        1.4842742179
  19
  -38.9547165900000       2.584053594861034E-002 !gc
 C         -3.8745838445       -0.1744607364       -0.1486729205
 C         -2.9740521582       -1.0724130692       -0.6911109754
 C         -1.6081803872       -0.8850964290       -0.5363517652
 C         -1.1563380528        0.2195126636        0.1651198250
 C         -2.0531504220        1.1243559715        0.7191253413
 C         -3.4108327224        0.9222263826        0.5615420549
 O          0.1960472953        0.5128446547        0.3831403869
 C          1.1413997093       -0.1390050922       -0.3411962395
 H          0.9037776680       -0.2408233782       -1.4124309483
 C          2.4709840769        0.6140266586       -0.1782858532
 F          3.3710012383        0.1791897518       -1.0943010570
 F          3.0182245978        0.3835429233        1.0351314225
 F          1.3153528621       -1.4420232577        0.1222618899
 H         -4.9341796748       -0.3302626559       -0.2734169836
 H         -3.3263071040       -1.9330357067       -1.2375178456
 H         -0.9219136745       -1.6100022686       -0.9449069231
 H         -1.6656208765        1.9677689001        1.2660784989
 H         -4.1069122614        1.6241792307        0.9921545364
 H          2.3355599984        1.6963505293       -0.3006198093
  19
  -38.9545980400000       2.279395618671621E-002 !mtd12
 C         -3.7850093458        0.0678778569       -0.3381699163
 C         -3.3379811976       -0.8868281826        0.5601099388
 C         -1.9955878593       -0.9574480498        0.8907983039
 C         -1.1075752017       -0.0614422703        0.3175451925
 C         -1.5453667357        0.9068075556       -0.5721611334
 C         -2.8901255126        0.9633151743       -0.8991041610
 O          0.2413394303       -0.1314983905        0.7239219031
 C          1.1845627328       -0.2512148303       -0.2407305455
 H          0.9456698783        0.2367913597       -1.1960786553
 C          2.5233689567        0.2512128116        0.3159284704
 F          2.4279244323        1.5785157747        0.5635114041
 F          3.5033370678        0.1080766062       -0.6065525527
 F          1.3640764612       -1.6041612751       -0.5591407226
 H         -4.8304614462        0.1177749328       -0.5976527040
 H         -4.0318957480       -1.5831104995        1.0033258132
 H         -1.6241247222       -1.6918910205        1.5866701484
 H         -0.8513355469        1.6192019591       -0.9918692025
 H         -3.2354474674        1.7154588857       -1.5905586335
 H          2.8170245675       -0.2652819096        1.2377018718
  19
  -38.9545978400000       2.278913260773572E-002 !mtd8
 C         -3.7783277570       -0.2484360120       -0.3261548529
 C         -2.8418688853       -0.6113542448       -1.2793607815
 C         -1.4998697021       -0.3287192268       -1.0855112687
 C         -1.1072331606        0.3152805526        0.0771895157
 C         -2.0367579018        0.6899158994        1.0340524801
 C         -3.3757014732        0.4066876440        0.8257525749
 O          0.2387155020        0.6723974799        0.3018753412
 C          1.1686619594       -0.3110492094        0.2496793565
 H          0.9486072159       -1.1304907130       -0.4488805466
 C          2.5345232112        0.3196967545       -0.0524833125
 F          2.5076506054        0.8556566472       -1.2951215948
 F          3.5003812387       -0.6283228258       -0.0701948903
 F          1.2776601922       -0.9237142740        1.5052782234
 H         -4.8213867595       -0.4720700397       -0.4838060164
 H         -3.1521264455       -1.1118112729       -2.1828870763
 H         -0.7725234266       -0.5912061867       -1.8387704148
 H         -1.6994924241        1.1981775096        1.9226192799
 H         -4.1019199038        0.6956620759        1.5686632242
 H          2.8074839078        1.0995449735        0.6686248371
  19
  -38.9524861200000       2.439205988181760E-003 !gc
 C         -3.7350223540       -0.2884495029       -0.3008729980
 C         -2.8250799623       -1.0579674261       -1.0058810425
 C         -1.4665233948       -0.8113045145       -0.8971063237
 C         -1.0312192286        0.2113219137       -0.0688634456
 C         -1.9333554705        0.9927084324        0.6350923466
 C         -3.2887674223        0.7391350017        0.5135047711
 O          0.3346998042        0.5385571742        0.0387684676
 C          1.1892181249       -0.4439195831        0.4035753817
 H          0.9216599323       -1.4506308846        0.0493178598
 C          2.6231118707       -0.1131747424       -0.0412534023
 F          2.8670434346        1.2134244398        0.0128271769
 F          2.7809921288       -0.4790789761       -1.3375530901
 F          1.2171662435       -0.5574023542        1.8036645567
 H         -4.7911830211       -0.4868851599       -0.3899926290
 H         -3.1687714598       -1.8518753340       -1.6498156830
 H         -0.7588495345       -1.3967302895       -1.4645731024
 H         -1.5609441751        1.7866795326        1.2618868945
 H         -3.9936389024        1.3442554344        1.0610337489
 H          3.3744992648       -0.6335070332        0.5673014213
  19
  -38.9524851700000       2.436755122861900E-003 !gc
 C         -3.7494727423        0.0648405808       -0.2345552645
 C         -3.2376755616       -0.7483211069        0.7629491950
 C         -1.8740652552       -0.7876284126        0.9982857152
 C         -1.0302327660       -0.0031384591        0.2286838176
 C         -1.5319634923        0.8246996497       -0.7634244612
 C         -2.8977283415        0.8510517186       -0.9919654398
 O          0.3444362852       -0.0304262667        0.5356054377
 C          1.2049725255       -0.3162029801       -0.4674842555
 H          0.8979268747        0.0416850644       -1.4616153112
 C          2.6119850803        0.2148185998       -0.1489621090
 F          2.8831590604        0.1444473178        1.1715287955
 F          2.6769961344        1.5273799050       -0.4839111934
 F          1.3229329975       -1.7085251180       -0.6136513944
 H         -4.8116715014        0.0900617293       -0.4186216916
 H         -3.8974541041       -1.3580824748        1.3593559601
 H         -1.4513798574       -1.4116056634        1.7689815258
 H         -0.8701980796        1.4545543086       -1.3387397443
 H         -3.2930256264        1.4942651546       -1.7620881556
 H          3.3923426321       -0.3292659494       -0.6972779569
  19
  -38.9520971000000       1.616096404278501E-003 !mtd9
 C         -3.8654336449       -0.2574069957       -0.0681688516
 C         -3.0371156519       -0.8445404349       -1.0086095733
 C         -1.6776525228       -0.5761288644       -1.0152987732
 C         -1.1554231828        0.2840642773       -0.0629480088
 C         -1.9783736766        0.8823126032        0.8796260887
 C         -3.3348126732        0.6100776682        0.8723898970
 O          0.2029712325        0.6579825076       -0.0322294741
 C          1.1462359822       -0.3062924921       -0.1785247666
 H          0.9468037038       -1.0506520625       -0.9630177494
 C          2.4955620704        0.3743061434       -0.4513529542
 F          3.4122790593       -0.5426458707       -0.8480276600
 F          2.9890923041        0.9509120512        0.6658744165
 F          1.2536109151       -1.0518386828        0.9985854127
 H         -4.9219312044       -0.4730010519       -0.0702978368
 H         -3.4456386643       -1.5140942893       -1.7488685439
 H         -1.0475115162       -1.0290488189       -1.7646481400
 H         -1.5407357114        1.5528902328        1.6010522240
 H         -3.9740599141        1.0739751113        1.6065230473
 H          2.4043487140        1.1432638732       -1.2296958891
  19
  -38.9518514000000       1.246095598673492E-003 !mtd11
 C         -3.7223605911       -0.3832396968       -0.1758694461
 C         -2.9189785856       -0.8941176319       -1.1821503874
 C         -1.5627477718       -0.6154237196       -1.1985294487
 C         -1.0273104673        0.1848605936       -0.2020497760
 C         -1.8194531439        0.7006871028        0.8101271434
 C         -3.1739521887        0.4116231409        0.8169537279
 O          0.3505775523        0.4985591411       -0.2483833790
 C          1.1574502591       -0.2887159313        0.4996310678
 H          0.8935028322       -1.3586887456        0.4814870535
 C          2.6233285117       -0.1170175724        0.0695480285
 F          2.8910870119        1.1595838414       -0.2795888359
 F          2.8572675054       -0.8725390356       -1.0311872542
 F          1.0895634769        0.0728836793        1.8531027498
 H         -4.7778872872       -0.6043869836       -0.1657285784
 H         -3.3448173860       -1.5124763109       -1.9562263745
 H         -0.9190812929       -0.9996020597       -1.9744207678
 H         -1.3730223373        1.3172471547        1.5745630930
 H         -3.7978546293        0.8101834056        1.6010667401
 H          3.3227718513       -0.4180003347        0.8608294659
  19
  -38.9518513200000       1.245990114184361E-003 !mtd1
 C         -3.7352360564       -0.0442790491       -0.2917710163
 C         -3.1032126036       -1.0557956416        0.4122238366
 C         -1.7447255722       -0.9814790410        0.6717232103
 C         -1.0331435093        0.1168320710        0.2184749761
 C         -1.6524921174        1.1328613458       -0.4915893555
 C         -3.0117798579        1.0481114422       -0.7414806095
 O          0.3461029531        0.2323520916        0.5068242507
 C          1.1813992482       -0.4020591735       -0.3476560385
 H          0.8897363163       -0.3288887752       -1.4080086153
 C          2.6184276920        0.1165801758       -0.1761039436
 F          2.8945790197        0.3917991913        1.1166639586
 F          2.7562549753        1.2820468478       -0.8540027485
 F          1.2149608021       -1.7786019690       -0.0807190793
 H         -4.7935802431       -0.1071492618       -0.4896561551
 H         -3.6646950793       -1.9069830320        0.7630872425
 H         -1.2343128870       -1.7590529057        1.2182514008
 H         -1.0704013790        1.9762682116       -0.8287778881
 H         -3.5024050386        1.8369387810       -1.2891593269
 H          3.3626473452       -0.5999146879       -0.5484710999
  19
  -38.9515769300000       9.319952170187817E-004 !gc
 C         -3.8656933869       -0.0699116307       -0.2092392569
 C         -3.2914430091       -1.1938117327        0.3610932660
 C         -1.9343195008       -1.2205212789        0.6310556472
 C         -1.1573343149       -0.1125327617        0.3305592836
 C         -1.7237013554        1.0217861024       -0.2290786366
 C         -3.0821889955        1.0337326826       -0.5000590348
 O          0.2060510003       -0.1732387072        0.6866017201
 C          1.1266903768        0.1730346633       -0.2492582082
 H          0.8669899251        1.0526653486       -0.8563604747
 C          2.4806323908        0.3976724006        0.4556869641
 F          3.0642544777        1.5333339393       -0.0034754192
 F          3.3475843351       -0.6030216247        0.1945619283
 F          1.2730855368       -0.8640690354       -1.1721912923
 H         -4.9224199135       -0.0520232944       -0.4231846819
 H         -3.8967562416       -2.0553686861        0.5937350382
 H         -1.4644037836       -2.0836714100        1.0736173810
 H         -1.1238070132        1.8932995955       -0.4412960934
 H         -3.5261176038        1.9148534513       -0.9356373295
 H          2.3552886531        0.4806505776        1.5433348106
  19
  -38.9494042000000       9.351819392287206E-005 !gc
 C         -3.3927909231       -0.5993847782       -0.5525324309
 C         -2.2993225547       -1.4468674912       -0.5643796863
 C         -1.0905893882       -1.0490976143       -0.0145565475
 C         -0.9861185503        0.2161183352        0.5396866387
 C         -2.0792121017        1.0713124322        0.5578118393
 C         -3.2824100468        0.6595607644        0.0144683408
 O          0.1810556713        0.6948730050        1.1735058690
 C          1.3495266510        0.7915058420        0.4811983710
 H          2.0102659741        1.4489740482        1.0652161774
 C          2.1124441112       -0.5330822249        0.2316517090
 F          3.4488897846       -0.2866255447        0.2395820732
 F          1.8444495988       -1.0655898529       -0.9820230619
 F          1.1521113981        1.4111855887       -0.7424323291
 H         -4.3285441998       -0.9197993614       -0.9821914997
 H         -2.3792289995       -2.4304233633       -0.9996210260
 H         -0.2553218436       -1.7289247997       -0.0266626836
 H         -1.9683196632        2.0469612186        1.0027416222
 H         -4.1298847412        1.3262227166        0.0296944817
 H          1.9013088952       -1.2797545169        1.0091678031
