  19
        -38.95711535
 C         -3.8067032155       -0.0998448708       -0.3467166994
 C         -2.9322194043       -1.1416199149       -0.5958644888
 C         -1.5790205057       -1.0088558124       -0.3214096054
 C         -1.1128144503        0.1861701581        0.1996535599
 C         -1.9836175346        1.2364849983        0.4592616891
 C         -3.3301467540        1.0878956251        0.1864479942
 O          0.2298620256        0.4255541797        0.5213518706
 C          1.1887805373       -0.3696340853       -0.0126419183
 H          1.0197590928       -0.6507570051       -1.0633208685
 C          2.5387905570        0.3425071784        0.1548738874
 F          2.5292542097        1.4916479816       -0.5584994538
 F          3.5355225248       -0.4153363224       -0.3591761991
 F          1.2835854396       -1.5740641239        0.6885987657
 H         -4.8570828832       -0.2134226172       -0.5622920036
 H         -3.2962340403       -2.0720127448       -1.0022208183
 H         -0.9139729028       -1.8397539195       -0.4975774145
 H         -1.5856009608        2.1492059447        0.8707014647
 H         -4.0068468411        1.9029847812        0.3874944530
 H          2.7657025970        0.5730317038        1.2030268185
