! pbe def2-sv(p) def2/J RI DEFGRID1 loosescf d4 GCP(DFT/SV(P)) printgap
%output
    printlevel normal
end
* xyz 0 1
C 4.5178268559 0.5697477109 -2.0551341203
C 4.6464018874 0.0280952895 -0.6473499136
O 3.604129673 0.4997621137 0.2274898661
P 2.04850084 0.3215247857 -0.0280120705
S 1.1586609252 1.5451475624 -1.2793790409
O 1.4621219336 0.5612889677 1.4173446218
C 2.0589546006 0.1399721444 2.6722210041
C 2.0258036788 -1.3627018401 2.8619497669
S 1.8709728144 -1.7349434446 -0.5475741766
C 0.1240276103 -1.7195817943 -0.9833878749
S -0.9548627642 -1.4017163912 0.449997161
P -2.098662446 0.2369741343 -0.2795678189
S -2.1748197325 0.4594336421 -2.2188715027
O -1.5762274753 1.5129476652 0.4858460013
C -1.5176615351 1.610343916 1.9292946124
C -2.7325144911 2.3316843773 2.4747865415
O -3.5116364593 0.0022200808 0.4200616747
C -4.55310669 -0.7891748858 -0.1790234489
C -4.1842192695 -2.254506227 -0.2877635309
H 3.5995065681 0.2070078797 -2.5151118033
H 4.4850614784 1.6567337587 -2.0430763154
H 5.3649446131 0.2409340966 -2.6482716478
H 5.561403457 0.3790689954 -0.1668955736
H 4.6207886304 -1.0648982575 -0.6502709275
H 3.0803856717 0.5216165459 2.7088230826
H 1.4451949902 0.6479819164 3.4180242877
H 2.7114922884 -1.8543798324 2.1762713157
H 2.3222040347 -1.59176616 3.8808053428
H 1.0223494034 -1.7449924727 2.6877248617
H -0.0995155412 -2.7118459349 -1.3669148964
H -0.06896857 -0.9507753833 -1.7372665079
H -1.4309290486 0.603095549 2.3474869762
H -0.5993519441 2.1693627402 2.1215103662
H -2.8271516274 3.3060525233 2.0029814442
H -3.6330759528 1.7567933372 2.2774474086
H -2.6145619517 2.4608155823 3.5461652447
H -5.4060482762 -0.6374338862 0.48400997
H -4.7710004855 -0.374566058 -1.1679611516
H -3.8454360793 -2.6342926608 0.6727768086
H -5.054260458 -2.8160852971 -0.6123867472
H -3.3901186403 -2.3833521238 -1.0215515779
*
