! r2scan-3c def2/J RI DEFGRID2 scfconv6 printgap
%output
    printlevel normal
end
%cpcm
    smd true
    smdsolvent "water"
end
* xyz 0 1
C 3.7558300322 2.2216684157 0.3788797892
C 2.6237432389 1.6427483374 -0.4437432032
O 1.6733016469 0.9445321502 0.3986448817
P 1.7097433479 -0.6023864731 0.6947122572
S 0.2372542888 -1.1735813935 1.84830005
O 3.1625563227 -0.8074635335 1.3073104333
C 3.5341198256 -1.9762149206 2.0595320399
C 3.583075295 -3.2237793406 1.2016888448
S 1.8496898734 -1.5467826382 -1.2086288483
C 0.1185182262 -1.409801995 -1.697790769
S -0.3909346413 0.3082694672 -2.0571387157
P -1.89004255 0.5730768267 -0.6139759096
S -2.8359610291 -1.0456739185 -0.0264208765
O -2.8237283491 1.6774754916 -1.282764749
C -3.8149644302 1.3400296547 -2.2755118743
C -5.1963251359 1.3009070416 -1.6517190928
O -1.1626586917 1.4493264706 0.4808614315
C -1.8002880218 1.7495196402 1.7432159044
C -0.7955245749 2.4913215299 2.5975960036
H 4.3298164338 1.4248864519 0.8438889486
H 4.4048949616 2.7980661117 -0.2729763879
H 3.3607574474 2.8701486137 1.1560547169
H 2.9997930654 0.9519037781 -1.2037762787
H 2.0316577914 2.4257614863 -0.9219979939
H 4.5174020372 -1.7247385335 2.4596544854
H 2.8195523847 -2.0995619115 2.8792452119
H 2.5781846159 -3.5047253989 0.8910774255
H 4.1886446871 -3.0508650459 0.3156628012
H 4.0110085235 -4.0370490981 1.7790346953
H -0.5294491768 -1.8061787639 -0.910502625
H 0.018441508 -1.9859746015 -2.6139485066
H -3.7369150741 2.1248617859 -3.0297405407
H -3.5638777583 0.3743833752 -2.7229160763
H -5.2449231599 0.5124183166 -0.9035171773
H -5.42023707 2.2520058119 -1.1769754786
H -5.9317488283 1.1015502934 -2.4242425996
H -2.6892782961 2.3533069993 1.5442020845
H -2.1014330611 0.8042274835 2.2081629961
H 0.0803745076 1.8664221155 2.7553004658
H -0.4905737952 3.4079341286 2.1015182031
H -1.2466756308 2.7255561589 3.5562059377
*
