! pbe def2-sv(p) def2/J RI DEFGRID1 loosescf d4 GCP(DFT/SV(P)) printgap
%output
    printlevel normal
end
* xyz 0 1
C 1.6632605959 3.2658850325 0.7224935947
C 2.3136036492 2.0313955017 0.1351405087
O 2.3095680993 1.0114415733 1.1668464126
P 2.5763336678 -0.5158985248 0.8958789094
S 2.5384846686 -1.5436006229 2.5578199399
O 3.954017148 -0.487855576 0.1036640213
C 4.7980124019 -1.6456450013 -0.0361165641
C 4.1324188267 -2.7517382289 -0.8283636172
S 1.1436638941 -1.0937167036 -0.5799306319
C -0.2565437874 -1.1472414714 0.5674430603
S -1.0587438885 0.4624867486 0.7837415834
P -2.4467653739 0.1940114158 -0.8248282343
S -1.7248963871 -0.4109038312 -2.5367000026
O -3.2683040205 1.5515955174 -0.8500174366
C -2.8834616131 2.6616488725 -1.6839786302
C -1.5600195186 3.2591312843 -1.2559344672
O -3.4742105507 -0.8527001257 -0.2374645748
C -4.2678191702 -0.6256494823 0.9543309363
C -5.6314357742 -0.0699294787 0.5987829166
H 0.6568232366 3.0273098033 1.0556919912
H 2.2375385247 3.6176203339 1.5743297724
H 1.6216442798 4.0430821982 -0.033404578
H 3.3498277247 2.2134401414 -0.1551652069
H 1.761091353 1.6533981214 -0.7307019206
H 5.682332439 -1.2601837339 -0.545644506
H 5.0668031725 -1.9977709245 0.9643886126
H 4.8513962136 -3.5432369493 -1.0137988081
H 3.295262309 -3.1616157637 -0.2647424156
H 3.7621196771 -2.3701688682 -1.7770153801
H 0.1048975474 -1.4719901453 1.5448065128
H -0.9767738014 -1.8548810118 0.1599767209
H -2.8315838046 2.3114035194 -2.7192457712
H -3.7041366386 3.3711050722 -1.5702567555
H -1.3587710863 4.1481334596 -1.8446283742
H -1.5875793415 3.5211837393 -0.2014379843
H -0.7613957174 2.5375756204 -1.4223411384
H -4.350121443 -1.6112304501 1.4166098082
H -3.7242045716 0.0515723779 1.618908312
H -6.1286260689 -0.7290586316 -0.1076561646
H -6.2292602413 0.0038017345 1.5019342906
H -5.5337780526 0.915223836 0.1515157912
*
