! wb97x-v def2-tzvp def2/J RIJCOSX DEFGRID2 scfconv7 GCP(DFT/TZ) printgap
%output
    printlevel normal
end
%cpcm
    smd true
    smdsolvent "water"
end
* xyz 0 1
C -1.4436616496971013 0.008662660101290598 -0.0005751226504299361
C 0.04684693439468757 -0.09593918469811405 -0.00042292521648679273
O 0.6793503888585094 -1.135158088248403 0.0005069419750800702
O 0.7325892921073418 1.076714414611948 0.00037587226799222826
H -1.77393258376253 0.5673062995172441 -0.882549362155796
H -1.888956410929802 -0.9851246903512128 -0.0024464438970488115
H -1.7742633977677598 0.5638996037558305 0.8834675637330006
H 0.118053118774506 1.827682603516515 -0.00014710851045288354
*
