  20
        -27.12248812
 C         -3.5936255210       -0.3775220022       -0.2082715244
 C         -2.1681268420       -0.0118975610       -0.6008973297
 C         -1.3690015478        0.4576587660        0.6117782397
 O         -0.0580795785        0.9012132098        0.2331431044
 C          0.9107515280       -0.0065749900        0.1284359575
 O          0.7534718331       -1.1842758720        0.3671251269
 C          2.2012874063        0.6308357526       -0.3176815537
 C          3.3759410437       -0.3349065458       -0.2438014154
 H         -3.5914773711       -1.1780534920        0.5271039233
 H         -4.1034906720        0.4826327976        0.2174703537
 H         -4.1462915547       -0.7118591266       -1.0813112115
 H         -2.1756982543        0.7860191808       -1.3456466698
 H         -1.6662255778       -0.8793968882       -1.0354173625
 H         -1.8351079454        1.3278467198        1.0756641826
 H         -1.2713713958       -0.3527985009        1.3410527694
 H          2.0503951121        0.9752578043       -1.3429543865
 H          2.3709912558        1.5132256614        0.3004432097
 H          3.1732031798       -1.2190132980       -0.8427231220
 H          4.2779715991        0.1442447391       -0.6112597742
 H          3.5382930808       -0.6561597739        0.7817578529
