! r2scan-3c def2/J RI DEFGRID2 scfconv6 printgap
%output
    printlevel normal
end
%cpcm
    smd true
    smdsolvent "water"
end
* xyz 0 1
C 0.45148027 -2.4814357838 2.0342829318
C 1.5153819996 -1.4358635747 2.3027299732
O 1.3382608614 -0.301708536 1.4212198503
P 2.2484605094 -0.0463823851 0.1564109541
S 2.9965200859 -1.6144180895 -0.7573076599
O 3.3430982819 0.9276720504 0.7743723174
C 4.5094877706 1.3417209545 0.0339910712
C 5.5828875005 1.7319085056 1.030156404
S 1.0413490887 1.2520872283 -0.9872012937
C 0.3020716456 -0.0104948449 -2.0624041836
S -0.6824422141 -1.2281458082 -1.1529703151
P -2.0904423955 0.1305499688 -0.3517743618
S -2.6478890321 1.5930331875 -1.5374873879
O -1.4260500838 0.5337019964 1.0238410355
C -1.6361945624 1.822184805 1.6328528582
C -3.0220985755 1.9219169404 2.2339553124
O -3.2558232708 -0.8244736682 0.1459907702
C -4.1868479484 -1.4202141733 -0.7811940721
C -5.3418207802 -1.9854305361 0.0202427828
H -0.5351149175 -2.0253437467 2.0710446235
H 0.594511781 -2.9203190216 1.0488253813
H 0.5182865962 -3.26187219 2.7853829453
H 2.5168597995 -1.8514233317 2.1599362079
H 1.4274541936 -1.0230070438 3.3088223322
H 4.8345628474 0.5092544464 -0.5993496322
H 4.2252343866 2.1858870005 -0.599410178
H 6.4600543584 2.0745966917 0.4912649564
H 5.2197030861 2.5287579957 1.6726149194
H 5.8510613809 0.8775912099 1.6453702193
H 1.0889840341 -0.5669143769 -2.5702139511
H -0.3322733779 0.523660137 -2.76905415
H -0.8522265561 1.8879464516 2.3886562421
H -1.4826668103 2.5976928703 0.8747944744
H -3.1854243376 1.1124952314 2.9402470062
H -3.1289778399 2.8754670767 2.7413410201
H -3.7679174395 1.8549196707 1.4424952662
H -4.5208303022 -0.6479252447 -1.4821526719
H -3.6639662819 -2.2038787599 -1.3364994981
H -5.848768493 -1.1905821404 0.5596710436
H -6.0430785693 -2.4636633256 -0.655590211
H -4.9731852729 -2.71643078 0.7338309557
*
