! r2scan-3c def2/J RI DEFGRID2 scfconv6 printgap
%output
    printlevel normal
end
%cpcm
    smd true
    smdsolvent "water"
end
* xyz 0 1
C 5.2342603592 -2.1630505383 -1.6435287808
C 4.1783427365 -1.082450048 -1.7609090988
O 3.1832414874 -1.3208640357 -0.7442184474
P 2.2340629783 -0.1650725319 -0.2052978722
S 3.1623730441 1.5029315246 0.2529937256
O 1.4903339789 -0.9137824914 0.9681105533
C 1.8899663005 -0.8190492797 2.3553448911
C 0.650861517 -0.6717725242 3.2147372576
S 0.7394388864 -0.0421821253 -1.6864774617
C 0.1009887456 1.5912107542 -1.2141391195
S -0.6116163169 1.6241330989 0.4495808856
P -2.1564156341 0.2281398563 0.0783846363
S -3.0187280962 0.3041450356 -1.6842857855
O -3.1325417041 0.3865404577 1.3208553505
C -4.2437076538 1.2999536331 1.3222397368
C -3.7949195075 2.747040063 1.3329999757
O -1.4067136219 -1.1161966867 0.4463265014
C -1.7815004469 -2.3888778562 -0.1124423064
C -3.107955017 -2.8696547229 0.4376296654
H 4.7766220194 -3.1413707087 -1.7579857916
H 5.9777743284 -2.0195823167 -2.4205778941
H 5.7162319951 -2.1106362794 -0.671348469
H 3.6817209442 -1.1114470905 -2.734237678
H 4.6051209972 -0.0860245192 -1.6040432358
H 2.4333822512 -1.7366016851 2.5906348731
H 2.5587009134 0.0407344861 2.4722903608
H 0.9420070038 -0.6753280814 4.2601670547
H 0.1418958961 0.2618804331 2.9874063658
H -0.0331428303 -1.4940480683 3.0251091521
H -0.6631020422 1.8436435606 -1.9486453555
H 0.9146647172 2.3157613654 -1.2172533023
H -4.8592993327 1.0961554647 0.4402395467
H -4.7934164127 1.0414767029 2.2282237022
H -4.6601033878 3.3907886563 1.4551174304
H -3.0965667279 2.9210322714 2.147760211
H -3.3025883824 2.9922467243 0.3928448276
H -1.8243464362 -2.2918931423 -1.2025701766
H -0.9580583947 -3.0494962457 0.1636923718
H -3.0819234844 -2.8869110712 1.5239623783
H -3.9036987374 -2.198823273 0.115469228
H -3.3139669422 -3.8673672869 0.0629826098
*
