! pbe def2-sv(p) def2/J RI DEFGRID1 loosescf d4 GCP(DFT/SV(P)) printgap
%output
    printlevel normal
end
* xyz 0 1
C 2.969197289 -0.4327144425 -2.3914566293
C 1.693603945 0.2289328316 -1.9183975629
O 1.0944531604 -0.4928010043 -0.8237859434
P 1.7799883777 -0.5221339772 0.6095884451
S 2.8803513785 1.0299383121 1.1026385899
O 2.5745355136 -1.8951846239 0.5346326492
C 3.4660881609 -2.3148975553 1.5878910817
C 4.4052155439 -3.3586483648 1.0177850833
S 0.1838488451 -1.0390940596 1.8760554241
C -0.6056357268 0.5917442779 2.0950075719
S -0.5482068908 1.6708203729 0.6405016682
P -1.9632854502 0.7577174 -0.638177195
S -1.8311636749 1.2001923708 -2.5411279774
O -3.4005889067 1.0560147867 -0.0017496571
C -4.1722160155 2.2100840747 -0.3664464104
C -3.5457993942 3.493198611 0.1414739733
O -1.7857529641 -0.7585400594 -0.2375514166
C -2.3123468757 -1.8370128581 -1.0432893525
C -1.4613317015 -3.0640285723 -0.7892377098
H 3.7208682219 -0.3833814851 -1.6042684145
H 2.7832250471 -1.4743364201 -2.6392509319
H 3.3389330719 0.0896265614 -3.2681512523
H 0.921972317 0.2344236265 -2.691163969
H 1.8844466235 1.2575969557 -1.5922854864
H 4.0116405128 -1.4377147902 1.9521453653
H 2.8611868969 -2.7236188277 2.4014754486
H 3.8338299631 -4.1927279325 0.6211860938
H 5.0036868181 -2.9299459234 0.218879005
H 5.0618548568 -3.7133413843 1.8053186967
H -0.0763392949 1.1407320615 2.8718198532
H -1.6378326894 0.3980272081 2.3766640207
H -4.2628016057 2.2333831367 -1.4571924856
H -5.1490650915 2.029882411 0.0842634731
H -3.3991408408 3.447077477 1.2174275638
H -2.5785076761 3.6478224027 -0.3373063148
H -4.1942572166 4.3297389211 -0.0980471565
H -3.3509358071 -1.9980329813 -0.7452687874
H -2.2809462484 -1.5341760279 -2.0956944353
H -1.8309909832 -3.8862120949 -1.3931693552
H -0.4263343855 -2.8592743513 -1.0526800925
H -1.5036717686 -3.3351366509 0.2620648127
*
