! pbe def2-sv(p) def2/J RI DEFGRID1 loosescf d4 GCP(DFT/SV(P)) printgap
%output
    printlevel normal
end
* xyz 0 1
C 4.9919777496 -2.649469855 -0.8028097725
C 3.6311977193 -3.0797324634 -1.326786659
O 2.9388663702 -1.9687831256 -1.9309793688
C 2.2295143625 -1.174410794 -1.165464376
O 2.0743596567 -1.3165447261 0.0323514517
C 1.6155203947 -0.0292940568 -1.9424014628
C 0.4318371038 0.52220881 -1.1610239406
H 0.0875408403 1.4710054075 -1.581666088
C 0.7865444177 0.7514482408 0.2946418013
O 0.053611036 0.4002506333 1.2031672468
O 1.8776575538 1.4496624218 0.4371200196
C 2.2664985711 1.8365621405 1.7732110562
C 1.5491079353 3.1094442452 2.1914926369
S -0.9700315715 -0.6533424585 -1.2039309111
P -2.2139640921 0.174352076 0.3021027787
S -2.228741001 2.1264712613 0.5593953813
O -3.6233704495 -0.3249856414 -0.2916995938
C -4.1592798602 0.2253750377 -1.4964626966
O -2.3299223075 -0.7872862196 1.5597093788
C -1.8976912462 -0.4952897295 2.8883821504
H 5.519712084 -3.5171936324 -0.4210571068
H 5.5742467677 -2.1982972462 -1.6012930212
H 4.872391909 -1.9279155962 0.0022461618
H 3.0115501019 -3.4806702251 -0.5197014313
H 3.7262071507 -3.8087746057 -2.1313131881
H 1.311611453 -0.3727428327 -2.9298979447
H 2.3731517691 0.7496933088 -2.0527376859
H 2.038156558 1.0112104482 2.4523790275
H 3.3436893195 1.9876520178 1.7055820209
H 0.4711359791 2.9573079953 2.1807403876
H 1.8559681619 3.3821279521 3.1955708906
H 1.7902354129 3.9187245008 1.5082952439
H -3.6000111863 -0.1388299238 -2.358829265
H -4.1197470792 1.3162614174 -1.4598491663
H -5.1910553481 -0.114031441 -1.5386828979
H -1.8462870512 0.5831770207 3.0453501768
H -0.9163264112 -0.9365078062 3.0538060351
H -2.641506866 -0.9404118949 3.5460319157
*
