! pbe def2-sv(p) def2/J RI DEFGRID1 loosescf d4 GCP(DFT/SV(P)) printgap
%output
    printlevel normal
end
* xyz 0 1
C 3.6198556803 1.7408501185 -1.1467384808
C 3.7322313504 0.7894589064 0.0277319076
O 3.0053359693 -0.4271567251 -0.2359365443
P 1.7659643149 -0.9666595511 0.6067306102
S 1.255161197 0.165684599 2.1267250236
O 2.1241755803 -2.4628007753 1.0076126219
C 2.7191714192 -2.7969775532 2.2750948294
C 4.1530613372 -2.3146300595 2.3643715106
S 0.4282595441 -1.5608203465 -0.9137595347
C 0.462843961 -0.0688361026 -1.9480930229
S -0.004106347 1.4361817388 -1.0443675888
P -1.9752524103 0.8609785146 -0.5962963166
S -2.9225177113 -0.1484990623 -1.9889510482
O -2.6490479134 2.2247373977 -0.1349174647
C -3.0251882041 3.257332324 -1.0722032047
C -4.4876807273 3.1325453133 -1.4522582994
O -1.8041011604 0.1276532667 0.7919875213
C -2.7569154347 -0.82309796 1.316071221
C -1.9997474133 -1.9199822685 2.03661146
H 2.5924461674 2.0808490885 -1.2664293338
H 4.2538766931 2.6016935176 -0.9607814401
H 3.9459018955 1.2500011937 -2.059612095
H 3.3384380486 1.2452596568 0.9428129589
H 4.7684694513 0.4836837261 0.1866995247
H 2.1139237285 -2.353444412 3.0725282905
H 2.6528363465 -3.8848254014 2.3188518816
H 4.723146961 -2.675534524 1.5121808175
H 4.1748236762 -1.2252776089 2.373242333
H 4.6015270844 -2.6832149852 3.2815533023
H -0.2541273794 -0.245522765 -2.7504210903
H 1.4649730053 0.0903837341 -2.3382500879
H -2.8277695345 4.1917388555 -0.5437305174
H -2.382993549 3.1945670366 -1.9552155629
H -4.6628332317 2.1937411123 -1.9731281624
H -5.1083793137 3.1601466663 -0.561070141
H -4.7579765544 3.9559939272 -2.1052727067
H -3.4119054341 -0.2777847206 1.9989178978
H -3.3467700766 -1.2243855802 0.4843572123
H -2.7086338562 -2.5964706844 2.5023729969
H -1.3799609414 -2.4760867581 1.3356190567
H -1.359837459 -1.4836384269 2.7998341006
*
