! pbe def2-sv(p) def2/J RI DEFGRID1 loosescf d4 GCP(DFT/SV(P)) printgap
%output
    printlevel normal
end
* xyz 0 1
C 2.4631448439 0.4833679092 -2.430333845
C 2.0695256566 1.5090553463 -1.3887298399
O 1.265521565 0.9543961349 -0.3122894397
P 1.7981426535 -0.0484253334 0.7937629459
S 0.8705007247 0.2394833944 2.4977880023
O 3.3528108326 0.2707809151 0.8055341401
C 4.3754325586 -0.6254508609 1.2814832225
C 4.1172299798 -1.1263271471 2.686361304
S 1.7218416165 -2.0147344311 -0.0339892012
C 0.0827911803 -1.9911910218 -0.8045354745
S -1.2859314633 -1.5840400288 0.3275585693
P -1.8806926822 0.2752200005 -0.4671006193
S -1.2781543949 0.7432693538 -2.2733961438
O -1.482604525 1.24951967 0.7117728211
C -1.3714679715 2.6750618756 0.5543055858
C -2.7131681114 3.3303272145 0.3035305227
O -3.4657838275 0.2508510959 -0.3068523465
C -4.3448985002 -0.2416276937 -1.3323228272
C -4.2049025618 -1.7345368513 -1.5502808836
H 3.055693582 0.9787915524 -3.1932024397
H 3.0542030821 -0.3133844482 -1.9851254463
H 1.57812008 0.0604796585 -2.899825864
H 1.4178929831 2.2708951832 -1.8206923424
H 2.947587557 1.9765096606 -0.9419702303
H 4.4444906436 -1.4636655435 0.5825633083
H 5.2841250039 -0.0228508373 1.2328852367
H 3.2110553906 -1.7305773457 2.7081407754
H 4.955736099 -1.7335988704 3.0114761612
H 3.987331969 -0.2915711625 3.3711283547
H -0.0735151052 -3.007509522 -1.1579695152
H 0.0677569177 -1.2789723957 -1.6332441534
H -0.9244635572 3.0015892189 1.4952400239
H -0.6778000238 2.8760469892 -0.2685173091
H -2.5901507627 4.4088869042 0.3077355196
H -3.1045476161 3.020833687 -0.6648957167
H -3.419571483 3.0420471292 1.0777191045
H -5.3395908905 0.0205823008 -0.9693569858
H -4.1314048238 0.3019019006 -2.2586349653
H -3.2305457117 -1.9593558777 -1.9818435808
H -4.3012472343 -2.265187204 -0.6063043461
H -4.978669021 -2.0692577318 -2.2337099618
*
