! r2scan-3c def2/J RI DEFGRID2 scfconv6 printgap
%output
    printlevel normal
end
%cpcm
    smd true
    smdsolvent "water"
end
* xyz 0 1
C 4.7848138702 -2.1810651484 -0.1599392999
C 4.1485028248 -1.7183094073 -1.4554997736
O 2.7270268848 -1.5458042032 -1.3065155699
P 2.0724179808 -0.2843244473 -0.5866496888
S 3.2224183681 1.2933542671 -0.4053237254
O 1.4627398689 -0.8458840827 0.7708219552
C 2.0252151039 -0.6329738293 2.0820347033
C 0.9165480205 -0.2833853367 3.0551163483
S 0.3680191193 -0.1472783794 -1.8072880692
C -0.1119290732 1.5362305131 -1.3233638816
S -0.5823091418 1.6551835128 0.4162482429
P -2.24980038 0.343526503 0.3113017161
S -3.3014332111 0.4402199516 -1.3463137485
O -2.9925576725 0.6209425152 1.6834953251
C -3.3407810289 1.9187754749 2.2002957773
C -4.1737518487 2.7329321084 1.2316782903
O -1.6995559674 -1.101540481 0.6538778366
C -1.9634640473 -2.2813345057 -0.1334827712
C -0.7724248669 -3.2134165791 -0.045335504
H 4.2966223039 -3.0841802843 0.196941647
H 5.8378404601 -2.3835739188 -0.3280259016
H 4.6914461376 -1.401422316 0.5956417986
H 4.2455028122 -2.4646426301 -2.2448472197
H 4.5859827267 -0.7702663061 -1.7830603242
H 2.517869308 -1.5657253099 2.3670477274
H 2.7670243566 0.1710569482 2.023094069
H 1.314231069 -0.2965189978 4.0647191643
H 0.5190303445 0.7050971315 2.8407038384
H 0.1096126785 -1.0070148436 2.9738467129
H -0.9603428737 1.8042940818 -1.9530351495
H 0.7262067847 2.2166181907 -1.4700238562
H -3.8978472482 1.6890775561 3.1103340587
H -2.417148485 2.4462662365 2.4544850625
H -4.4874953582 3.6540396575 1.7121266109
H -3.5903100121 2.9763610695 0.3449725647
H -5.0516458331 2.1710776862 0.9216122647
H -2.8591524317 -2.750341984 0.2813427805
H -2.1644929225 -1.9852184539 -1.1687646631
H -0.5638771651 -3.452362825 0.9934346978
H -1.0002656067 -4.1254293657 -0.5876216383
H 0.1092724035 -2.7513515605 -0.4833394533
*
