! pbe def2-sv(p) def2/J RI DEFGRID1 loosescf d4 GCP(DFT/SV(P)) printgap
%output
    printlevel normal
end
* xyz 0 1
C 3.126946163 -2.4588570024 -2.3415874394
C 3.2184227317 -2.4155841401 -0.8296334217
O 3.5330203057 -1.0800229265 -0.365428957
P 2.4518643613 -0.0427269964 0.1481255091
S 3.2918239019 1.5543668716 0.8921974612
O 1.4816923196 -0.84468365 1.1392807327
C 1.6607027293 -0.7885814297 2.5690753154
C 2.8856083168 -1.5670091241 3.0036322618
S 1.1368564166 0.2523523196 -1.4852031351
C 0.3759965492 1.7655306994 -0.84550796
S -0.7233171562 1.4705200701 0.5562892346
P -2.1929514349 0.3679004031 -0.543979928
S -2.4903677194 0.9806927656 -2.3751736487
O -3.4489854518 0.4284408874 0.4249192736
C -4.1928553857 1.6523968677 0.6020084003
C -5.4976314707 1.3055918759 1.2896614418
O -1.7716081649 -1.1454565446 -0.4736062639
C -1.6357612347 -1.8704578417 0.7739810557
C -2.8684810567 -2.7104820321 1.0343106132
H 4.0387381167 -2.0635696361 -2.7806452666
H 2.9924743805 -3.4879024678 -2.660178774
H 2.2849944085 -1.8653905717 -2.6933812215
H 4.04760825 -3.0263988098 -0.4681851802
H 2.2846231842 -2.7432141721 -0.3667886746
H 1.7427201958 0.2610263718 2.8673687626
H 0.7423553568 -1.2175017658 2.9717767426
H 2.8123712372 -2.6036304949 2.6852176078
H 3.7778034258 -1.1223002748 2.5629459999
H 2.9713861494 -1.5279929116 4.0848960456
H -0.1976294315 2.1935637531 -1.6678960951
H 1.1555804821 2.4458520745 -0.5015449912
H -3.5891851694 2.3342854587 1.2070863093
H -4.3623482432 2.1011130143 -0.3820563632
H -5.3000075388 0.8404272801 2.2509816803
H -6.0706822664 2.2141444287 1.4422174084
H -6.0729661461 0.6191484881 0.6748941514
H -0.7478318797 -2.490472336 0.6367562945
H -1.4641456235 -1.1534710313 1.5815760112
H -2.7187482993 -3.2939328989 1.937380219
H -3.7378017039 -2.0704341625 1.1586574756
H -3.0439759498 -3.3807395875 0.197483194
*
