! pbe def2-sv(p) def2/J RI DEFGRID1 loosescf d4 GCP(DFT/SV(P)) printgap
%output
    printlevel normal
end
* xyz 0 1
C 5.4921722208 -1.6787003334 -1.0140068206
C 4.6363296215 -0.4228081307 -0.9703409717
O 3.2433328042 -0.7405676686 -1.1559540542
C 2.5273000738 -1.0656232704 -0.0987301805
O 2.9492773097 -1.1140818416 1.0337090451
C 1.0880709443 -1.3716871274 -0.4815241678
C 0.4545274705 -0.1673160726 -1.1845060774
H 1.0195624985 0.073966896 -2.0877135747
C 0.4276849538 1.0271203095 -0.2567121551
O -0.6131582245 1.4964232838 0.1693272072
O 1.6144545323 1.4600325248 0.0424774368
C 1.7405534206 2.5206843894 1.0208956857
C 3.1592213199 2.4941023462 1.5525711724
S -1.2552563582 -0.4988661121 -1.7234790342
P -2.3524156564 -0.2146881726 0.061543924
S -1.704712456 -0.6369752963 1.8775592653
O -3.3049554264 1.0660675266 -0.0433587563
C -3.1933910983 2.2706895515 0.7127976594
O -3.4077108017 -1.3197524061 -0.440994236
C -4.5477004516 -1.6759024014 0.3436072921
H 6.5387382062 -1.4028442999 -0.9382897108
H 5.2390753138 -2.3324931389 -0.1824426119
H 5.3285560352 -2.2121299878 -1.9462021963
H 4.8741253999 0.2487306253 -1.7951400674
H 4.7515680539 0.0901747943 -0.0120235962
H 0.5352929671 -1.6280768233 0.4250677699
H 1.074177518 -2.2202490949 -1.1660251772
H 1.5103743245 3.4646611899 0.5198937681
H 1.0048036126 2.3456340033 1.8111120488
H 3.3721443443 1.5196190765 1.9855889356
H 3.8641339552 2.6888945669 0.750008191
H 3.2675176015 3.2545421688 2.3184634569
H -4.2116466999 2.6240411138 0.8609735423
H -2.6072492892 2.9980292545 0.1551681034
H -2.714222651 2.0696544248 1.6720327807
H -4.251788717 -1.8393493485 1.3823856017
H -4.9282937251 -2.5968161294 -0.0909759084
H -5.2986282155 -0.8880327717 0.2927928162
*
