! pbe def2-sv(p) def2/J RI DEFGRID1 loosescf d4 GCP(DFT/SV(P)) printgap
%output
    printlevel normal
end
* xyz 0 1
C -1.4411375434 -0.9880393556 8.4038e-05
S -0.0003382451 0.0885908902 -0.0001429434
O -0.0029186522 0.8777414285 1.225419169
O -0.0022724165 0.8773555457 -1.2259176506
C 1.4474639765 -0.9908913536 0.0007310618
H -2.3214418773 -0.3584023237 -0.0012973377
H -1.4001084438 -1.5895834808 -0.8974231216
H -1.4010320575 -1.5871625738 0.899296862
H 1.1043911559 -2.0157636186 -0.0313766621
H 2.0347786543 -0.751028269 -0.8753193552
H 2.0011860844 -0.7944501819 0.9088667098
*
