! r2scan-3c def2/J RI DEFGRID2 scfconv6 printgap
%output
    printlevel normal
end
%cpcm
    smd true
    smdsolvent "water"
end
* xyz 0 1
C -2.5132945529 -0.7584869865 0.0033784068
C -1.2152860048 -0.0048388141 0.0002356249
C -1.2145055271 1.3804093396 0.0004883865
C -0.0273924978 2.0898841605 -0.0012672125
C 1.1710154648 1.4048683327 -0.0010148169
C 1.2139561315 0.0151748431 -0.0004662974
C 0.0068568006 -0.6891467622 -0.0018289329
O -0.0533065237 -2.0558918254 -0.0038860947
C 2.5665146091 -0.6458171395 0.004544337
H -3.1005019261 -0.4992422103 -0.8759679444
H -2.3315179266 -1.8286829038 0.00306096
H -3.0953430578 -0.4991296079 0.8861115545
H -2.1600998093 1.9022108279 0.0011127492
H -0.0374096508 3.1691539357 -0.0020354996
H 2.1033855131 1.9505353977 -0.0006732426
H 0.8366045826 -2.4350495052 -0.0177534028
H 3.1208936373 -0.3353903189 0.8890591056
H 2.5234540126 -1.7315945206 0.0015676972
H 3.1313400675 -0.3300176885 -0.8712897225
*
