! pbe def2-sv(p) def2/J RI DEFGRID1 loosescf d4 GCP(DFT/SV(P)) printgap
%output
    printlevel normal
end
* xyz 0 1
C 2.7739188306 0.208221844 -2.8703757096
C 3.5702994659 0.9208106798 -1.7940887725
O 3.6432100659 0.1580122516 -0.5827682353
P 2.4165926388 -0.0360494544 0.4051967957
S 1.2016284589 1.5081127834 0.4497131112
O 3.3013822936 -0.2924667264 1.6890085812
C 2.8757132332 -1.0004287711 2.8693377013
C 1.5567717055 -0.4925792209 3.4155069513
S 1.6313819744 -1.9752102921 -0.0114587978
C -0.0061748289 -1.6218816944 -0.6928613917
S -1.1815634024 -0.9734433868 0.5397284928
P -2.1944856489 0.3994367696 -0.7359581511
S -1.1835425062 1.0965669206 -2.2587117777
O -2.8686806848 1.4545375681 0.2396603738
C -2.1742070886 2.4745957224 0.9816112577
C -1.9566793394 2.0391303767 2.4169271255
O -3.4638355726 -0.372738968 -1.2617293554
C -4.4153145711 -1.0401222943 -0.391395051
C -4.2898818681 -2.543314776 -0.5401626882
H 2.9183571976 0.7130009388 -3.8201873991
H 3.0994115745 -0.8254122546 -2.9581620539
H 1.7102831047 0.2344347767 -2.63325491
H 3.1279290562 1.8985772595 -1.5748253619
H 4.6139516938 1.0457143362 -2.0862276978
H 2.8122325742 -2.06452545 2.6259510877
H 3.6911799079 -0.8310677775 3.5747534233
H 0.7501801867 -0.7088432383 2.7145952494
H 1.3426200851 -0.9851029639 4.3584626451
H 1.602679298 0.5828692146 3.5722306479
H -0.3678986081 -2.5783891876 -1.0621395407
H 0.0639973864 -0.8890488343 -1.500872027
H -1.2236660487 2.7009867662 0.4900136854
H -2.8275939762 3.3473744276 0.9254393806
H -2.9034944311 1.7657893 2.8736111259
H -1.281929061 1.1875640461 2.4552600601
H -1.511997141 2.8609664795 2.9682666669
H -4.2422875689 -0.7248849604 0.6394953323
H -5.392520564 -0.6868998823 -0.7236311742
H -3.3340637968 -2.8870216358 -0.1527603869
H -5.0892177599 -3.0213937951 0.0170150164
H -4.3683360856 -2.8196509545 -1.5879729796
*
