! pbe def2-sv(p) def2/J RI DEFGRID1 loosescf d4 GCP(DFT/SV(P)) printgap
%output
    printlevel normal
end
* xyz 0 1
C 3.8611179626 1.3628423516 -1.9583299833
C 2.4799457267 0.7780093972 -2.1604170501
O 2.2604513632 -0.3768907921 -1.3294523178
P 2.1154095618 -0.2840201773 0.2442465091
S 1.1991582635 1.3105090838 0.9413562139
O 3.6185872698 -0.4197326806 0.7411812836
C 4.0201793634 -0.0951229092 2.0829332634
C 3.4463851046 -1.0646114306 3.0958633827
S 1.3399989311 -2.2022059439 0.617148817
C -0.3039588533 -2.0675826046 -0.1348831027
S -1.5013267847 -1.1365765945 0.8685749462
P -1.9941025013 0.4376959142 -0.489296942
S -1.0266504891 0.4576266854 -2.1892527642
O -1.8173772856 1.8078176825 0.2545356993
C -2.330421653 2.0761205317 1.5826181339
C -3.5891646863 2.9140894268 1.5034977777
O -3.5844491454 0.3422350627 -0.5664353758
C -4.3424046453 -0.8487842984 -0.8406734848
C -4.0044806266 -1.4662320021 -2.1819471604
H 4.6152355568 0.5903924846 -2.0834797034
H 4.0245823276 2.1528616156 -2.684600044
H 3.9448466897 1.7798080832 -0.9554541812
H 2.3353753154 0.4005329502 -3.1737543811
H 1.7032645272 1.518533926 -1.9408129398
H 5.1093658989 -0.1419059682 2.0487034555
H 3.6955806508 0.9272746552 2.3030440975
H 3.6831322178 -2.0879355141 2.8156307396
H 3.8620266322 -0.8509926102 4.0753313695
H 2.3630193114 -0.9561177342 3.1399913821
H -0.6666919354 -3.088984586 -0.2153292079
H -0.2222894444 -1.5890197187 -1.1156466109
H -2.513302442 1.1261902756 2.0932013688
H -1.5186204969 2.6064471598 2.0854543029
H -3.3857356923 3.8384784691 0.9701051
H -4.3700262114 2.3707546509 0.9779067784
H -3.923956639 3.1453350523 2.5097033361
H -4.1668956617 -1.5611216233 -0.0292670886
H -5.3777453736 -0.5045567895 -0.8133699629
H -4.1157749658 -0.7315325825 -2.9758072958
H -2.9748751388 -1.820573783 -2.1881756974
H -4.6690779149 -2.3032054814 -2.3701458091
*
