! pbe def2-sv(p) def2/J RI DEFGRID1 loosescf d4 GCP(DFT/SV(P)) printgap
%output
    printlevel normal
end
* xyz 0 1
C 3.3951895669 0.5336440427 -2.0841945786
C 2.1893086912 0.8424042577 -1.2197243343
O 2.0056850659 -0.2361490662 -0.2909943831
P 1.5853286994 -0.0870982157 1.2388461013
S 1.7377644546 1.7177343879 1.9829993876
O 2.490603423 -1.1870369412 1.9500379904
C 3.7834087394 -0.8947116945 2.5118600983
C 4.794949938 -0.5040421228 1.4546398411
S -0.2350815875 -1.1365125389 1.4747378487
C -0.1956668404 -2.2220647992 0.0314293815
S -0.4548283226 -1.3984007561 -1.5879529693
P -1.7462979283 0.1951828453 -1.1266386154
S -2.5550632446 1.0630024301 -2.6834378808
O -0.7756893578 1.1303271813 -0.2687542638
C -1.0858855492 2.5285884287 -0.0814284838
C -2.2835596532 2.7267531971 0.821811911
O -2.7784284894 -0.3322331432 -0.0351598884
C -4.0619096625 -0.86727091 -0.4016278897
C -3.954708499 -2.2953087556 -0.8980185105
H 3.4952253523 1.3107194152 -2.8350710407
H 4.2992634584 0.4978744411 -1.48336328
H 3.2561440225 -0.4243707057 -2.5772305912
H 1.2861706812 0.9170863734 -1.8333528958
H 2.3157379787 1.7748584133 -0.6587727954
H 3.6651768555 -0.0913665201 3.2458449453
H 4.0615493293 -1.8205148765 3.0172587791
H 4.5191911311 0.4562611693 1.0202470641
H 5.7755480521 -0.412803709 1.9113651895
H 4.8295402375 -1.2562385384 0.6705362924
H -0.9922293757 -2.9450100386 0.1880752237
H 0.7718587947 -2.7119962363 -0.0450014717
H -0.1787433178 2.942609769 0.3629315607
H -1.2586175293 2.9754025928 -1.0658069987
H -3.185455577 2.3599044643 0.3343876873
H -2.1385704065 2.1883991898 1.7556457594
H -2.3983580876 3.7856186553 1.031187462
H -4.6482236754 -0.802818098 0.51583222
H -4.4999526577 -0.2232853199 -1.1717908321
H -3.5082965878 -2.9280400881 -0.1355843359
H -4.9475999325 -2.6666077403 -1.1310611288
H -3.3451797022 -2.3323903279 -1.8003352732
*
