! pbe def2-sv(p) def2/J RI DEFGRID1 loosescf d4 GCP(DFT/SV(P)) printgap
%output
    printlevel normal
end
* xyz 0 1
C 5.6475247056 -1.4807894794 -1.2940288792
C 4.8517031046 -0.2247152215 -1.0049339608
O 3.6308113069 -0.6147929081 -0.3364653229
P 2.3197818372 0.2667629431 -0.4128678899
S 1.8408857169 0.8802022553 -2.217835194
O 2.6835175133 1.4272517958 0.6141186637
C 1.8927258293 2.6106115676 0.8191652102
C 1.0523933413 2.4812587226 2.0739479301
S 1.0255297498 -1.0511668214 0.5835886115
C -0.0048224054 -1.5757208017 -0.8383340309
S -1.7050671497 -1.8854389433 -0.3377457217
P -2.1712750492 0.0737699749 0.3688362883
S -1.3760678623 1.5770960343 -0.6048289296
O -1.7634944634 0.1093645799 1.8905749771
C -1.8376170121 -0.9855895167 2.8369886817
C -3.2183044693 -1.598063689 2.9200548365
O -3.7582713281 0.0943575888 0.4328747997
C -4.5797921182 0.4823219177 -0.6807125252
C -4.4839587432 -0.4932556111 -1.836211783
H 5.8470157025 -2.0126673662 -0.3684073131
H 5.0889254052 -2.1314251122 -1.9609320423
H 6.5866716483 -1.2070493255 -1.7636363881
H 4.5901133954 0.3073240261 -1.9261599953
H 5.3938262792 0.4521714678 -0.3408333501
H 2.6199798043 3.4195127097 0.9122181851
H 1.265711928 2.7853102738 -0.0618045337
H 1.682280126 2.2105810926 2.9165697637
H 0.5650100825 3.4303565528 2.2725320205
H 0.2866311371 1.7187263047 1.9445548979
H 0.3760488925 -2.5136302276 -1.2343275371
H 0.0275954686 -0.7828484921 -1.5913979581
H -1.0887017354 -1.7293575832 2.5493003739
H -1.5461748588 -0.5173191954 3.7781737029
H -3.2282739916 -2.3381540332 3.7142127987
H -3.9577633497 -0.8306063395 3.1327406641
H -3.4738624739 -2.0831332544 1.9802243271
H -5.5865540903 0.5120862626 -0.2616891223
H -4.280415649 1.4859366882 -0.9994031336
H -4.6617905694 -1.5085667869 -1.491482245
H -5.2223182619 -0.2319949847 -2.5875413892
H -3.4936811229 -0.4427392556 -2.2864480358
*
