! pbe def2-sv(p) def2/J RI DEFGRID1 loosescf d4 GCP(DFT/SV(P)) printgap
%output
    printlevel normal
end
* xyz 0 1
C 1.5943365484 -3.533668551 -2.4482773819
C 2.9053626815 -2.9191586897 -1.9844121229
O 2.6840676692 -1.6006302493 -1.4499771535
C 2.3231676885 -1.4879005402 -0.1875440046
O 2.2445930395 -2.4071956158 0.595010294
C 2.018051629 -0.0447250145 0.1775435495
C 1.0661782967 0.5749380425 -0.846560377
H 1.5741671547 0.696489953 -1.8061764132
C 0.5343991185 1.9109875027 -0.3640643839
O -0.655371563 2.1094920166 -0.2062482507
O 1.4832355055 2.7748825867 -0.1522130444
C 1.1306629968 4.0611392495 0.4071469666
C 1.0938546644 3.9856301759 1.9243058707
S -0.3680476713 -0.496739064 -1.2009192527
P -1.5648466925 -0.1400986994 0.4983151979
S -0.9257006246 0.4241460062 2.2612236256
O -2.9033710839 0.6362171634 0.1046151021
C -3.5147668424 0.4832411477 -1.1870035872
O -2.0337276939 -1.6965169392 0.5177781273
C -2.9080663935 -2.1719601434 1.5413845934
H 1.1085296082 -2.8802404049 -3.1675872194
H 1.7893817304 -4.4976450312 -2.9059626088
H 0.9265925345 -3.6713312407 -1.6005206177
H 3.5904823919 -2.7636381854 -2.8175731515
H 3.3730496166 -3.5370539525 -1.2126698062
H 2.9469980313 0.5276698652 0.1920795393
H 1.5792649887 -0.0383973623 1.1781043851
H 1.9156828985 4.7308488781 0.0570972118
H 0.1583775595 4.3612585875 0.0086114251
H 2.0606500642 3.6773223566 2.311582381
H 0.8409550113 4.9607352708 2.326677177
H 0.3436170823 3.266146916 2.2494343375
H -4.5474446483 0.7980252827 -1.0580532673
H -3.4628908801 -0.555446155 -1.5166917745
H -3.0042827161 1.1274895034 -1.901937512
H -3.8584573483 -1.6363906789 1.5141717445
H -2.4443822876 -2.0367532167 2.5202571264
H -3.055193756 -3.2286624021 1.3336549718
*
