! pbe def2-sv(p) def2/J RI DEFGRID1 loosescf d4 GCP(DFT/SV(P)) printgap
%output
    printlevel normal
end
* xyz 0 1
C 5.0728468943 -0.1968871633 -0.7368123285
C 4.2181135022 -0.8372694481 0.3448361953
O 2.8202288585 -0.7773907207 -0.0073598194
C 2.3137952107 -1.7536087936 -0.7445904351
O 2.9366331054 -2.7224050075 -1.1129617291
C 0.8456351909 -1.5371885898 -1.0398665122
C 0.4908224674 -0.0720002921 -1.26406943
H 0.9537173501 0.3252867946 -2.1687305211
C 0.8353823527 0.8062909406 -0.0801244601
O 0.3249699393 0.6508217435 1.0110649542
O 1.6697978105 1.761664442 -0.3945911533
C 2.0455279724 2.7026074672 0.6348357437
C 0.9643682954 3.7514882863 0.8380781827
S -1.3063656076 0.1363460497 -1.5014037885
P -2.124682508 -0.1757224708 0.4515399257
S -1.5836845424 -1.699631016 1.5621625459
O -2.2195130613 1.2237496913 1.1879728791
C -2.9152804216 2.3446169721 0.6071318886
O -3.6594139259 -0.3144967885 -0.0059268949
C -4.1516945527 -1.5011030856 -0.633025858
H 5.006757069 -0.7759852093 -1.6548017839
H 4.7328722896 0.8167059291 -0.9314465772
H 6.1063203411 -0.1736684338 -0.4077464938
H 4.2867398407 -0.2925978545 1.2869417928
H 4.4935792963 -1.8850675909 0.4925398684
H 0.2962701594 -1.9191980485 -0.1697767077
H 0.5688466954 -2.1345905052 -1.9087146619
H 2.2264849873 2.1484525995 1.5596506652
H 2.9697812663 3.1462690598 0.2658326322
H 0.7379847957 4.2450888204 -0.1030472151
H 0.0613887008 3.2837223804 1.2246684275
H 1.3114291468 4.4879190126 1.5552040619
H -3.9838031243 2.140864086 0.5793202152
H -2.5478028825 2.5349906129 -0.4018795256
H -2.6994518227 3.1841416019 1.2634781139
H -3.8387964096 -1.524811414 -1.6763479417
H -5.2347460095 -1.4463325232 -0.5585462668
H -3.7785804626 -2.3836626539 -0.1103604353
*
