! pbe def2-sv(p) def2/J RI DEFGRID1 loosescf d4 GCP(DFT/SV(P)) printgap
%output
    printlevel normal
end
* xyz 0 1
C 3.9050362288 -2.0075552355 -2.1678444543
C 4.012926898 -0.4995192223 -2.0704956751
O 3.4569323735 0.0117717658 -0.8457148396
P 1.9049682735 -0.0485290636 -0.5189462213
S 0.7428212738 0.3005684633 -2.0533448402
O 1.7366954409 1.0325036467 0.6154515814
C 2.183350273 0.9387432364 1.9901498202
C 3.6634241143 0.6525614807 2.1121991962
S 1.608620482 -1.9324283419 0.4112631771
C -0.1946167873 -1.9351348255 0.3036141154
S -0.9922996547 -0.8535324739 1.5463158237
P -1.9114467147 0.6983424343 0.4538137713
S -1.0848077769 2.4432224715 0.1450256924
O -3.2246328079 0.973451747 1.3077399698
C -4.1605388736 -0.0602740713 1.6995876233
C -4.0596519743 -0.3240637364 3.1887714437
O -2.3676418234 -0.1394142747 -0.8287361141
C -2.794479454 0.5055901055 -2.0465938991
C -2.7008974101 -0.5080271061 -3.1674463779
H 4.4593085971 -2.3479307307 -3.0365922185
H 4.3104798022 -2.4757147712 -1.2746443003
H 2.8626259307 -2.3008362222 -2.2783780714
H 3.4981310588 -0.0215339937 -2.9099582538
H 5.0523508527 -0.1699615313 -2.0381593629
H 1.9201016789 1.9168582859 2.3969971901
H 1.5915934549 0.1655207088 2.4901822492
H 4.2356342188 1.3825787427 1.5455956835
H 3.9448941748 0.7080480269 3.159279609
H 3.8883435601 -0.343258102 1.7357380399
H -0.51702166 -2.9495226208 0.5210322152
H -0.5007092605 -1.6159332754 -0.6927535899
H -5.1424589085 0.3370077991 1.4359745136
H -3.962107573 -0.9649910491 1.1190185909
H -3.0792007454 -0.722802725 3.438944428
H -4.2116789403 0.600659483 3.7382424316
H -4.8218921819 -1.0419421557 3.4742864052
H -3.8191352011 0.8580257452 -1.9011121867
H -2.1444043423 1.3673166434 -2.231463726
H -1.6621315671 -0.7882177689 -3.3239058012
H -3.2811466018 -1.3923355624 -2.9207121364
H -3.0873201019 -0.0624390424 -4.0778698653
*
