! pbe def2-sv(p) def2/J RI DEFGRID1 loosescf d4 GCP(DFT/SV(P)) printgap
%output
    printlevel normal
end
* xyz 0 1
C 4.0290512037 -0.9969384623 -2.6708295537
C 4.297927113 -1.5741306407 -1.2962033221
O 3.0883144986 -1.7389659588 -0.5361802638
P 2.2478886813 -0.5001157631 0.002723646
S 3.347261045 1.0017621143 0.6317982504
O 1.31224942 -1.208441629 1.0661859787
C 1.7694594588 -1.5134329301 2.4059790443
C 1.3534818384 -0.4254021527 3.3761261009
S 0.8254227255 -0.0899935551 -1.5004621483
C 0.2839859265 1.4986906595 -0.8114151142
S -0.7263128206 1.3157850484 0.6753912819
P -2.4057841766 0.4354718605 -0.306892691
S -2.7999337486 1.1128843061 -2.0966222922
O -3.5740870058 0.5586763208 0.7662346648
C -4.4367756299 1.7089478159 0.8485362853
C -3.6911274691 2.963519135 1.2537255425
O -2.1358418471 -1.1181267089 -0.3077106091
C -1.9765366966 -1.8936006919 0.9067516519
C -1.3548579764 -3.2203634134 0.5248514299
H 3.2777021198 -1.5875905248 -3.1891862048
H 3.6666569177 0.0265502783 -2.5803749835
H 4.9483744897 -0.994946936 -3.247558152
H 4.974682142 -0.9238669759 -0.7324225867
H 4.7113199356 -2.5818060213 -1.3544874515
H 1.2968763313 -2.467320977 2.6458144339
H 2.8558391835 -1.6345307018 2.3962674994
H 1.8370511407 0.5144435515 3.1188626355
H 0.2775300853 -0.2774676963 3.3428234917
H 1.6469464613 -0.7117932361 4.3808866671
H -0.3023653475 1.9892561366 -1.5884472665
H 1.1558733556 2.0908910575 -0.5325273453
H -4.9193447232 1.8459045116 -0.1237891842
H -5.1783262507 1.4213325503 1.5952043145
H -3.117072275 2.7889624852 2.1602687785
H -3.0106435538 3.2656014869 0.4591044198
H -4.4047019441 3.7627839446 1.4262449444
H -1.3361421375 -1.3339877053 1.5944635673
H -2.9642540631 -2.0213534886 1.3536665527
H -0.3632807588 -3.061918251 0.1079609551
H -1.2798132966 -3.8470684461 1.4077799128
H -1.970566384 -3.7172226763 -0.2194526837
*
