! pbe def2-sv(p) def2/J RI DEFGRID1 loosescf d4 GCP(DFT/SV(P)) printgap
%output
    printlevel normal
end
* xyz 0 1
C 1.2328222231 0.5092422451 2.8576625606
C 2.7185789721 0.2976528093 2.6500286119
O 3.12345149 0.6051146081 1.3049908936
P 2.7250209964 -0.3087611071 0.0656769689
S 2.7554457632 -2.2403588922 0.4225874984
O 3.716651963 0.2115510364 -1.0525754123
C 5.03893626 -0.3398684998 -1.2282896307
C 5.9510877967 -0.0262406545 -0.0606911981
S 0.9454356389 0.519883084 -0.7394723067
C -0.0860272655 -0.9790750951 -0.7959929554
S -1.4025115623 -0.9731908904 0.4392016372
P -2.6680743083 0.385688104 -0.6132843851
S -2.8288817553 0.0785604702 -2.5371324919
O -2.0771017114 1.8138825982 -0.3084047298
C -1.8417800465 2.3326089416 1.0235067976
C -3.0108235989 3.1756098327 1.4895353791
O -4.02345311 0.3694239812 0.2155259548
C -5.0789732416 -0.5757262754 -0.0403180263
C -4.667029852 -1.9995825375 0.2715535963
H 0.6659034628 -0.2195823365 2.2781931446
H 0.9940418749 0.3793789419 3.9082423479
H 0.949822583 1.5108338191 2.5437492312
H 2.9934781586 -0.7397483796 2.866769748
H 3.3115947582 0.9763640331 3.2645196024
H 4.9454594778 -1.4218564326 -1.3665077964
H 5.3903276838 0.1220649157 -2.1519084625
H 5.6087600551 -0.5492581204 0.831014433
H 6.9591117144 -0.3535079983 -0.2959070851
H 5.9533603542 1.0424956322 0.1366347891
H 0.5390790866 -1.8522778665 -0.597288111
H -0.5408114485 -1.0323257715 -1.785748182
H -1.6631377626 1.4950777281 1.703716102
H -0.9331110067 2.9290244836 0.9197346831
H -3.9028650472 2.5624973587 1.5836867063
H -2.770964854 3.6113158596 2.4544006979
H -3.2049527314 3.970493773 0.7746583875
H -5.8897251578 -0.2403847346 0.6080199272
H -5.3774112085 -0.4822365616 -1.0888716823
H -5.5339301198 -2.6478048981 0.1932971667
H -3.9131125114 -2.3345923314 -0.4391649731
H -4.255781031 -2.0647530188 1.2757656715
*
