! r2scan-3c def2/J RI DEFGRID2 scfconv6 printgap
%output
    printlevel normal
end
%cpcm
    smd true
    smdsolvent "water"
end
* xyz 0 1
C 4.0942590643 0.6730636751 -2.6503240605
C 4.8156094464 -0.2120556427 -1.6531858147
O 3.9211964266 -1.1280447207 -0.998874956
P 2.8474628209 -0.6387508458 0.0529090244
S 3.4283188832 0.8724544626 1.1706336309
O 2.6664562724 -2.0510360159 0.7444442756
C 1.538247426 -2.4343487193 1.5485577428
C 1.511080108 -1.7190677305 2.8849972415
S 1.058638343 -0.3173303845 -1.0734635157
C 0.380235598 1.0738395233 -0.1275042129
S -0.7988099511 0.5525953968 1.1545594669
P -2.5560880424 0.6465570504 -0.0121019207
S -2.4159093474 0.416962541 -1.9601025835
O -3.058288375 2.0742271602 0.459299539
C -4.0636903186 2.8183001845 -0.2583804747
C -5.4286475479 2.1705229743 -0.1558515578
O -3.5722801647 -0.3325242677 0.7185373198
C -3.710117687 -1.7136348316 0.3416757026
C -2.4314104101 -2.4953399256 0.5638129089
H 3.4264632995 1.3562363624 -2.1271099241
H 4.8217714597 1.2528636106 -3.2092268569
H 3.5088804394 0.0676281425 -3.3378285698
H 5.3155804244 0.3949256823 -0.8909984595
H 5.5420472978 -0.8611215209 -2.1439671601
H 0.619305246 -2.2399984801 0.9871169319
H 1.6683263395 -3.5104571352 1.675726725
H 2.4624856885 -1.8422584244 3.3959305051
H 1.3243607805 -0.655350774 2.7447482504
H 0.7172808503 -2.1334082317 3.4978290859
H -0.1240612647 1.7269782837 -0.8356091742
H 1.2011348661 1.5872468816 0.3786338047
H -4.0452226092 3.8017957913 0.2130793371
H -3.7528511539 2.8998381661 -1.3051348009
H -5.6818034341 1.9930953413 0.8860569651
H -6.1712483879 2.8237254663 -0.6033803156
H -5.4288865247 1.2190537143 -0.6856610712
H -4.522206527 -2.0778189259 0.9721386157
H -4.0051155667 -1.7564312865 -0.7115996362
H -2.0833068331 -2.3663178464 1.5859366786
H -2.6126920074 -3.5481009293 0.3725557726
H -1.6621771891 -2.1414879342 -0.1235062755
*
