! pbe def2-sv(p) def2/J RI DEFGRID1 loosescf d4 GCP(DFT/SV(P)) printgap
%output
    printlevel normal
end
* xyz 0 1
C 5.4271639416 -1.2340161349 -1.3469576445
C 4.0674124123 -0.7370298016 -1.7929566721
O 3.5600087072 0.2703832713 -0.882868634
P 2.5953272406 -0.0414758212 0.3290344118
S 2.2803618652 1.5658814432 1.3959337894
O 3.3074855157 -1.2529725877 1.0677509417
C 2.9943660723 -1.6189172443 2.4257469036
C 1.5365574393 -1.9902413379 2.5989867448
S 0.9060132221 -0.95481568 -0.6083016408
C 0.175582335 0.5882621721 -1.2140170241
S -0.943442131 1.3569296587 -0.0192333455
P -2.7742094813 0.4318209982 -0.6449578847
S -2.7281420305 -0.325780407 -2.4508327557
O -3.8986979008 1.5303643101 -0.5693532134
C -4.4882705094 2.0656575578 0.6403467387
C -3.4972602913 2.8581544754 1.4661460045
O -3.1942600881 -0.5221676272 0.5599333338
C -2.3691902908 -1.5544315595 1.1244945312
C -2.2107990118 -2.7422184473 0.1975404425
H 5.814270142 -1.9211232327 -2.0929597421
H 6.1121779845 -0.3972758203 -1.2401101304
H 5.3479797143 -1.7472043041 -0.3927342863
H 3.3457413891 -1.5565228207 -1.853498079
H 4.1285915728 -0.2260437155 -2.7557651873
H 3.6539053218 -2.464513691 2.6255063457
H 3.2557716386 -0.7782170346 3.0748739635
H 0.916305888 -1.1062773136 2.4538374242
H 1.2492199196 -2.7489995648 1.8750246728
H 1.3779454862 -2.3680686145 3.6037496217
H -0.3896083287 0.3472107504 -2.117491647
H 0.9687731263 1.3053867618 -1.4169672661
H -5.292295745 2.6996745494 0.2633877748
H -4.9054616935 1.2366129392 1.2144224146
H -3.0364799932 3.6365538079 0.8630645946
H -4.016778408 3.3154163608 2.3025392639
H -2.7121288385 2.2093339588 1.8512077613
H -1.394089697 -1.1264757709 1.3764768449
H -2.8944435493 -1.8323976816 2.0400614169
H -3.1856201455 -3.1035846373 -0.1192860944
H -1.6398560356 -2.4631947395 -0.6862827482
H -1.6845655071 -3.5347542058 0.7192195473
*
