! r2scan-3c def2/J RI DEFGRID2 scfconv6 printgap
%output
    printlevel normal
end
* xyz 0 1
C 4.0237043395 0.0788748769 -2.6341018289
C 4.3027156148 0.7693284003 -1.3146547695
O 3.7598150199 0.0401741855 -0.2017218545
P 2.1978880622 -0.1118000646 0.0425120938
S 1.1830355626 1.5283858438 -0.3500879398
O 2.129554012 -0.6462038693 1.5295757631
C 2.0784307101 0.2215008675 2.6792999115
C 3.3358872955 1.0510414949 2.8223346152
S 1.7505429213 -1.9064192894 -0.9630239493
C 0.0136393284 -2.1379174315 -0.5018906163
S -1.1637802313 -1.1949204503 -1.5354515218
P -2.0308881328 0.0828135244 -0.0938143007
S -1.3553500814 -0.0658274755 1.7461565666
O -3.5870428791 -0.2406384012 -0.2078918931
C -4.1466191671 -1.4503744646 0.3349928433
C -5.6558863467 -1.3167910161 0.3120106391
O -1.9797181273 1.4743924587 -0.8285864657
C -2.0693604107 2.7354558387 -0.135117587
C -3.4147918682 2.9184587641 0.5332849112
H 4.3546916287 -0.9559041945 -2.5960068431
H 2.9542431618 0.0952988107 -2.8432278097
H 4.5458195776 0.5982256909 -3.4313017144
H 3.875068737 1.7774837021 -1.3104387479
H 5.3712503738 0.8168210515 -1.1009754179
H 1.1935914036 0.8602284305 2.5929265856
H 1.9440793806 -0.4672349802 3.5144567343
H 3.2960389904 1.603511178 3.7558766536
H 4.2116078871 0.4073623526 2.8162099659
H 3.4098338348 1.7568617985 1.9956758131
H -0.1293493074 -1.8560340914 0.5447840408
H -0.1905156811 -3.1929279067 -0.6615117481
H -3.8118264829 -2.290523756 -0.2809290955
H -3.7696848238 -1.5817078691 1.3552092276
H -6.1001874958 -2.2303342953 0.6930550713
H -5.9673365395 -0.4803488428 0.9310302693
H -5.995120582 -1.1468887297 -0.7055956364
H -1.2531254379 2.7877914258 0.5927078057
H -1.8959877687 3.4715592274 -0.9211387369
H -4.2127469538 2.7962201961 -0.1943725551
H -3.5395722197 2.1769324287 1.3219673795
H -3.4670171472 3.9110805887 0.9693966929
*
