! pbe def2-sv(p) def2/J RI DEFGRID1 loosescf d4 GCP(DFT/SV(P)) printgap
%output
    printlevel normal
end
* xyz 0 1
C 4.8652835195 -1.4254689858 -1.5796739418
C 4.8219288232 -0.1022415664 -0.8441374809
O 3.7569447985 -0.0630509481 0.1216624873
P 2.2330405275 0.0363129422 -0.3076143283
S 1.8954764094 1.152005292 -1.8924631236
O 1.5278505276 0.3965226632 1.0655680155
C 1.9978588034 1.4087916292 1.983558681
C 2.1351263774 2.7667645637 1.3298911107
S 1.5770960514 -1.9610881363 -0.5176299169
C -0.1363476651 -1.6166252626 -0.9901232549
S -1.2519801885 -1.6313093398 0.4504910134
P -2.2660736263 0.2110441133 0.1010974244
S -1.2164751759 1.8390120553 -0.1504165993
O -3.3151030098 0.2583690503 1.294109306
C -2.9962976411 0.8664566501 2.5592275562
C -1.9269681037 0.0976787098 3.3076046861
O -3.1535593504 -0.0803221419 -1.1715410892
C -4.1191932064 -1.1584861936 -1.2610454939
C -5.4999330699 -0.6871075273 -0.8535600818
H 4.8902501045 -2.2502357777 -0.8723196331
H 3.9812153739 -1.5295176902 -2.2070699699
H 5.749688058 -1.4589808493 -2.2076170982
H 4.682063741 0.7248970774 -1.5478739145
H 5.7216997758 0.0605811104 -0.2493354598
H 1.2348262269 1.4210469962 2.7638107751
H 2.9510956895 1.0710850749 2.3958055377
H 1.1933672566 3.0562939148 0.8663216726
H 2.4104621105 3.5035739716 2.0775534115
H 2.9023066815 2.7364908449 0.5567271066
H -0.4400783508 -2.4091125543 -1.6686913918
H -0.1840469931 -0.636811559 -1.4736283455
H -2.673369398 1.8956951036 2.3732416104
H -3.9452750889 0.8650625748 3.0971013204
H -0.9839504112 0.1521596412 2.7644395431
H -1.7939616069 0.532794166 4.292927501
H -2.2100301433 -0.9472598343 3.4073693507
H -4.0946275011 -1.4525060211 -2.3119881472
H -3.7825417086 -1.9873782806 -0.6320906037
H -6.2102347914 -1.4913512221 -1.0182288534
H -5.5099786236 -0.4083800011 0.1963979336
H -5.7895875082 0.1749173152 -1.448434236
*
