! pbe def2-sv(p) def2/J RI DEFGRID1 loosescf d4 GCP(DFT/SV(P)) printgap
%output
    printlevel normal
end
* xyz 0 1
C 2.8775422304 -4.2391866403 0.2018963219
C 2.7179117355 -3.4884011232 -1.1101756652
O 2.7688207444 -2.0623487594 -0.8981155172
C 1.6743834441 -1.441266044 -0.5310912465
O 0.5939360667 -1.9798533956 -0.3874555624
C 1.9146315249 0.02901309 -0.2823194609
C 0.9522250745 0.9509767063 -1.0552388514
H 1.4199183653 1.3057650518 -1.974604799
C 0.5939925161 2.1306594797 -0.1625934058
O -0.4806343287 2.2420438052 0.3846927571
O 1.6027245688 2.9528692211 -0.0339426766
C 1.4421360176 4.1097335672 0.8175767813
C 0.7890895409 5.2530996373 0.0591465192
S -0.6124055883 0.1938592745 -1.6234736783
P -1.5047610855 -0.3164656075 0.2123173745
S -0.6478237525 -0.367196891 1.9845919854
O -2.7382513978 0.69301394 0.0863630058
C -3.6912716329 0.8412624636 1.141082447
O -2.3112515965 -1.6684978594 -0.0980059333
C -1.945006709 -2.9841780587 0.3087724003
H 2.8813325747 -5.3064201481 0.0070891689
H 3.8102220522 -3.9587312927 0.6832467178
H 2.0518687206 -4.0058315949 0.8709418215
H 1.7659396784 -3.7359590865 -1.5875532979
H 3.5474177931 -3.6882971586 -1.787998389
H 2.9453819568 0.2735295876 -0.532055704
H 1.7599240447 0.1677389421 0.7934831983
H 0.8413115212 3.8224900506 1.6849107885
H 2.4584112927 4.3592760553 1.1214706581
H -0.2205712269 4.9775777942 -0.2375547036
H 0.7405427409 6.1261791845 0.7013722789
H 1.3671515416 5.4919731644 -0.8289979743
H -4.2663585083 1.7294720593 0.8926230219
H -3.1761003553 0.9764634496 2.0943672169
H -4.3360421546 -0.0366826638 1.1899676977
H -1.3630606943 -3.4586858596 -0.4779824467
H -2.8783100575 -3.5166458946 0.4784131147
H -1.3551001251 -2.9415338053 1.2259634577
*
