! wb97x-v def2-tzvp def2/J RIJCOSX DEFGRID2 scfconv7 GCP(DFT/TZ) printgap
%output
    printlevel normal
end
* xyz 0 1
C -1.1112876282488931e-05 -4.551506767106896e-05 0.4981125353757122
Cl -1.611594354331878 0.5360458642274541 -0.06621259699278169
Cl 0.342057310501635 -1.6636005798273477 -0.06633771399262353
Cl 1.2698258188395835 1.1277110858608268 -0.06657501023537477
H -0.0003049619899234762 -0.00011627359688259942 1.5878528480562633
*
