! pbe def2-sv(p) def2/J RI DEFGRID1 loosescf d4 GCP(DFT/SV(P)) printgap
%output
    printlevel normal
end
* xyz 0 1
C 5.4899051941 -0.3493712881 -1.9181898456
C 3.9867708683 -0.5224663611 -1.8322255432
O 3.5849987244 -0.2387137513 -0.4798664884
P 2.0524971871 -0.0416036163 -0.0873461455
S 1.1412623923 1.2762646276 -1.2226054426
O 2.1983791051 0.2314289522 1.4566250067
C 2.2576487732 1.5593974236 2.0158569793
C 3.5116623345 2.2929978392 1.5918268941
S 1.2995986083 -2.0188407129 -0.1064731122
C -0.04678388 -1.8662027746 -1.3311152805
S -1.7099309686 -2.1309389063 -0.6553209387
P -2.1076040739 -0.2062602439 0.1195833044
S -0.9737544709 0.3734362801 1.621677244
O -3.6493840196 -0.2645645831 0.4845371797
C -4.1469475853 -0.6882093354 1.7686752492
C -5.3776933935 0.1337565437 2.0970575991
O -2.1064224311 0.6223929695 -1.2239123031
C -2.8005617659 1.8742724989 -1.4224057121
C -2.2956085144 2.9632526021 -0.5006192281
H 5.7627360178 0.6755501713 -1.6838853357
H 5.9781981651 -1.0137692856 -1.2112889555
H 5.81886082 -0.5875755895 -2.9242337064
H 3.689758401 -1.5483480149 -2.0705045272
H 3.4634245265 0.1673826622 -2.5034935858
H 1.3570276813 2.1028065917 1.7122795533
H 2.2251623638 1.3850780551 3.0920868234
H 3.5554508486 3.2518727141 2.0986799318
H 4.3908209848 1.7056557039 1.8433642394
H 3.4950820212 2.4600430689 0.5151210463
H 0.094930956 -2.6555446019 -2.0638184049
H 0.0014727079 -0.8763490794 -1.7917967175
H -4.3841448902 -1.7516946436 1.6937546367
H -3.3593423025 -0.54364646 2.5162483333
H -6.1239489744 0.0126032466 1.3172094526
H -5.7877369801 -0.2049829429 3.042793493
H -5.1171389561 1.1857571266 2.1779064906
H -2.5946177621 2.1106836668 -2.4675189474
H -3.8681687345 1.6962749635 -1.2778290763
H -2.4959100483 2.7008153311 0.537573613
H -1.2212573968 3.0856151702 -0.6249879472
H -2.7935210476 3.8982605508 -0.7361864648
*
