! r2scan-3c def2/J RI DEFGRID2 scfconv6 printgap
%output
    printlevel normal
end
* xyz 0 1
C 2.8070212778 -0.9008251501 3.1548787776
C 2.0668934064 0.3404361334 2.704572705
O 1.411386034 0.1566939352 1.4263873556
P 2.1681455394 -0.2088354456 0.0871569774
S 2.6670143515 -2.0847849725 -0.2249173631
O 3.3816509577 0.8138333438 0.106978546
C 4.4760169041 0.727112165 -0.8274087414
C 5.7128838411 1.293522878 -0.1589858001
S 0.8358002195 0.5832960572 -1.3623366885
C -0.1508140596 -0.921118226 -1.5673971769
S -1.1701998671 -1.2857482881 -0.120892566
P -2.5617537533 0.3070760315 -0.433373934
S -3.030624647 0.6771638408 -2.2929998377
O -1.9368660426 1.5675152079 0.2770651095
C -1.626749276 1.611430065 1.6928547166
C -0.7248918745 2.8062583731 1.921983975
O -3.7669272654 -0.0510290309 0.5408287634
C -4.8767828842 -0.874700354 0.1357914893
C -4.459991857 -2.2992216065 -0.1658016847
H 2.1354483286 -1.7561523045 3.174996924
H 3.6228495272 -1.1227030079 2.4681068556
H 3.2135553163 -0.7384188066 4.148210761
H 2.7436900242 1.192996341 2.6213272471
H 1.2437770206 0.58123953 3.3791592779
H 4.6166857373 -0.3229366075 -1.1057886992
H 4.2030094977 1.3010097337 -1.7160992586
H 6.5380468585 1.2696360591 -0.8631141863
H 5.5326552845 2.3196808934 0.1479989141
H 5.973034128 0.702534461 0.7148405064
H 0.514034494 -1.7735180743 -1.7102418954
H -0.7929474041 -0.7615154193 -2.4340292516
H -2.5675831838 1.701297566 2.23914976
H -1.1352256394 0.6735586856 1.9689772242
H -0.5129634115 2.8987620388 2.9822930759
H 0.2061184508 2.6806988891 1.3750441042
H -1.214366578 3.7102873246 1.5712271379
H -5.5577976507 -0.825059143 0.9866154707
H -5.3413681107 -0.4163044676 -0.7423181561
H -3.8966788974 -2.7150254005 0.6659355636
H -5.3457379968 -2.9017404689 -0.3394926057
H -3.8371359232 -2.3239797529 -1.0587476236
*
