! pbe def2-sv(p) def2/J RI DEFGRID1 loosescf d4 GCP(DFT/SV(P)) printgap
%output
    printlevel normal
end
* xyz 0 1
C 5.7019715596 1.4371147702 -0.2591454946
C 4.4632706934 0.8237209902 -0.8791343329
O 3.4897789088 0.6403100047 0.1714132202
P 1.9742501889 0.3308649011 -0.1695421745
S 1.0899755296 1.5972391336 -1.3768174735
O 1.290078638 0.3219305115 1.2488794038
C 1.8925663752 -0.128349194 2.4916396368
C 2.3065626804 -1.5835396586 2.4566315149
S 2.0369274894 -1.6501643052 -0.9492959824
C 0.2792310065 -1.7981915154 -1.3150903677
S -0.7339698433 -1.9534943935 0.1982881364
P -2.1100665811 -0.3874653383 -0.0524474106
S -2.3552719419 0.2834940313 -1.8821566789
O -1.7871659211 0.727815922 1.040563376
C -1.5448488813 2.1166406182 0.7727368197
C -2.6458935915 2.9527340692 1.3937746459
O -3.3006772892 -1.1900823287 0.6270373161
C -4.4803062469 -0.5671546432 1.1721274229
C -5.4035412923 -0.0466454118 0.0884952986
H 6.0963381293 0.7815316622 0.5114979633
H 6.4522426256 1.5763386129 -1.0303776705
H 5.4613299949 2.3995711638 0.1835361645
H 4.6752113517 -0.1537420626 -1.3198412833
H 4.0295403759 1.4750196911 -1.6447377664
H 2.745301399 0.5190161863 2.702396756
H 1.0998021808 0.0436186909 3.2217439114
H 3.1193504279 -1.7324971797 1.7493554115
H 2.6428602133 -1.8739114508 3.4472201729
H 1.4668483878 -2.2117137673 2.1667669446
H 0.1627389046 -2.7093585536 -1.8959219865
H -0.0621704814 -0.9253016206 -1.8805130495
H -0.5689003598 2.346323618 1.2059452303
H -1.494823446 2.2716718451 -0.3105945586
H -2.4136017724 4.0027250525 1.2484827807
H -3.5988339244 2.7323356407 0.9178603313
H -2.7193760776 2.7442768622 2.4576193865
H -4.9510439503 -1.3685198918 1.7443495847
H -4.1719617883 0.2360832794 1.846535267
H -5.672668437 -0.8493524574 -0.5932451061
H -6.3029828214 0.3565918696 0.5431869371
H -4.9112598298 0.7367581084 -0.4861968889
*
