  23
        -44.66714370
 C         -3.9379499365       -0.5962747431        0.0027410866
 O         -2.9741188910        0.4431660739       -0.0005575737
 C         -1.6538296677        0.1046184239       -0.0005991969
 C         -1.1565204151       -1.1773413945        0.0001213801
 C          0.2271002138       -1.3991144645       -0.0001806255
 C          1.0824425957       -0.2984850607       -0.0004916211
 C          0.6037375352        1.0181381715       -0.0010616292
 C         -0.7836311360        1.2194319011       -0.0017582351
 O         -1.3199741539        2.4579074007       -0.0036454013
 O          1.5634780327        1.9749676601       -0.0014188156
 C          1.2300919803        3.3565914730        0.0057992633
 Cl         2.7985248453       -0.4940222006       -0.0002786203
 C          0.7135892125       -2.7693922498        0.0000149777
 O          0.0026359124       -3.7563632312        0.0008910470
 H         -3.8452330509       -1.2179810361       -0.8897615381
 H         -4.9004024366       -0.0907266485        0.0037179353
 H         -3.8419421051       -1.2152217442        0.8968131766
 H         -1.7925102297       -2.0469702368        0.0006342552
 H         -2.2922511304        2.3856213572       -0.0034170617
 H          0.6656020162        3.6225751968        0.8993977042
 H          0.6653691062        3.6319101661       -0.8848006829
 H          2.1913302169        3.8660158565        0.0083634135
 H          1.8096145053       -2.8748103188       -0.0006944545
  23
        -44.66475596
 C         -4.1008594029       -0.3209981938        0.0006160587
 O         -3.0577897982        0.6389012685       -0.0001768998
 C         -1.7664445964        0.2007412194       -0.0001472697
 C         -1.3687150043       -1.1155260590        0.0003705738
 C         -0.0048619962       -1.4453149645        0.0001128665
 C          0.9315722210       -0.4096109475       -0.0004173921
 C          0.5516503894        0.9413013823       -0.0008212146
 C         -0.8153931301        1.2474618437       -0.0009591503
 O         -1.2592781539        2.5221878620       -0.0020317278
 O          1.5782894830        1.8223074436       -0.0015781501
 C          1.3488241925        3.2252175983        0.0046918189
 Cl         2.6252829733       -0.7372424682       -0.0006992509
 C          0.3505846524       -2.8546610813        0.0006805071
 O          1.4641306241       -3.3408621090        0.0008679043
 H         -4.0577958796       -0.9457430990       -0.8935826548
 H         -5.0200145294        0.2596333186        0.0005074874
 H         -4.0573505328       -0.9447351055        0.8954961568
 H         -2.0893283592       -1.9154178170        0.0008820334
 H         -2.2342915339        2.5216330153       -0.0013464223
 H          0.8077514236        3.5341326273        0.8990781747
 H          0.8048680122        3.5419035861       -0.8851814899
 H          2.3454876510        3.6611919469        0.0049972903
 H         -0.5317048198       -3.5211042611        0.0009013759
  23
        -44.66183745
 C         -3.9837004851       -0.7896540840       -0.0509614798
 O         -3.1032998204        0.3199467334        0.0179319867
 C         -1.7725658369        0.0819518492        0.0160799585
 C         -1.1730371124       -1.1590665170       -0.0499060722
 C          0.2198407064       -1.2951116225       -0.0315809148
 C          1.0322585530       -0.1541883425        0.0468956835
 C          0.4559306827        1.1108075283        0.0739815055
 C         -0.9501284015        1.2244187646        0.0737826750
 O         -1.5280800168        2.4303377960        0.1309615355
 O          1.0790713487        2.3251946137        0.1441995442
 C          2.3359388688        2.5486297514       -0.4841372734
 Cl         2.7515566210       -0.3637912914        0.1633697828
 C          0.7667423891       -2.6400973722       -0.0921219762
 O          0.1017992848       -3.6581804846       -0.1444096358
 H         -3.8495790109       -1.4509921978        0.8077939880
 H         -3.8370372160       -1.3501968430       -0.9767651787
 H         -4.9816717136       -0.3590738490       -0.0336340503
 H         -1.7448047216       -2.0708327143       -0.1086616816
 H         -0.8386109279        3.1210207603        0.1594083632
 H          2.4088131136        2.0081370510       -1.4277763183
 H          3.1615506431        2.2672950325        0.1698733154
 H          2.3714105191        3.6206588071       -0.6695353894
 H          1.8664762213       -2.7092421187       -0.0932422083
  23
        -44.66143004
 C         -3.9721628319       -0.7312230656       -0.1110157040
 O         -3.0730183082        0.3586726749        0.0155557233
 C         -1.7480650710        0.0989648555        0.0263912811
 C         -1.1670994200       -1.1479480960       -0.0754146861
 C          0.2244447861       -1.3179542613       -0.0369531594
 C          1.0480371993       -0.1951534065        0.0882656709
 C          0.4878326274        1.0757986127        0.1562936203
 C         -0.9066505556        1.2279939445        0.1490520818
 O         -1.4558056404        2.4413164125        0.2638008247
 O          1.2163786809        2.2380232923        0.2912529747
 C          1.9860677619        2.6287954770       -0.8476835986
 Cl         2.7654035593       -0.3680019088        0.2108479091
 C          0.7558385207       -2.6684961742       -0.1263019662
 O          0.0811152611       -3.6755067539       -0.2232185671
 H         -4.9623296750       -0.2829489171       -0.0952742344
 H         -3.8656011400       -1.4262528900        0.7245534612
 H         -3.8179558781       -1.2589270443       -1.0545958405
 H         -1.7559087192       -2.0456329685       -0.1743350913
 H         -0.7505600122        3.1036710456        0.4032604255
 H          2.4377297400        3.5779003641       -0.5719459153
 H          1.3415076821        2.7553717499       -1.7204974167
 H          2.7662894971        1.9024583298       -1.0748543911
 H          1.8549503864       -2.7444451380       -0.1036284105
  23
        -44.66134791
 C         -3.9762530200       -0.7515990027       -0.0951121571
 O         -3.0836075770        0.3448103313        0.0189448052
 C         -1.7566689075        0.0927742490        0.0248899346
 C         -1.1689430555       -1.1513533615       -0.0710656893
 C          0.2233717420       -1.3091515452       -0.0387672016
 C          1.0426738277       -0.1803984039        0.0776052206
 C          0.4770566741        1.0888901001        0.1336786315
 C         -0.9216803377        1.2268278099        0.1295263640
 O         -1.4805526369        2.4368972175        0.2292336847
 O          1.1683477030        2.2716758650        0.2554717896
 C          2.1101491582        2.5988899534       -0.7672418053
 Cl         2.7582840357       -0.3686628307        0.2101055153
 C          0.7606271908       -2.6573161624       -0.1241466671
 O          0.0894698241       -3.6682398239       -0.2086548130
 H         -3.8615736230       -1.4396048616        0.7452245532
 H         -3.8231240165       -1.2857052111       -1.0353146051
 H         -4.9691774892       -0.3095057028       -0.0782709719
 H         -1.7514351003       -2.0539649802       -0.1612340246
 H         -0.7778559293        3.1097413152        0.3243395307
 H          3.0254221078        2.0147406320       -0.6776380049
 H          2.3350479328        3.6516741149       -0.6157079728
 H          1.6736417864        2.4456941664       -1.7558604071
 H          1.8600994093       -2.7305095533       -0.1119275179
  23
        -44.66129541
 C         -3.9869493086       -0.7749575093        0.0478274736
 O         -3.0946411966        0.3247770293       -0.0249016872
 C         -1.7574008184        0.0728647185       -0.0220335106
 C         -1.1664742645       -1.1687995162        0.0472249992
 C          0.2273906875       -1.2973448460        0.0338271852
 C          1.0322198421       -0.1514703219       -0.0483831631
 C          0.4602178162        1.1191437477       -0.0807625983
 C         -0.9460811376        1.2221655097       -0.0759158741
 O         -1.4891812778        2.4465259787       -0.1214742355
 O          1.0941965835        2.3166653906       -0.1687420572
 C          2.3226415105        2.5508723003        0.5090664671
 Cl         2.7512763023       -0.3511580363       -0.1671045516
 C          0.7809288072       -2.6396026359        0.1015566317
 O          0.1190929440       -3.6597622650        0.1538943929
 H         -3.8429789589       -1.3343291310        0.9741947611
 H         -3.8596082148       -1.4389633872       -0.8092630520
 H         -4.9809875450       -0.3352732449        0.0312024267
 H         -1.7375903862       -2.0810157227        0.1068189076
 H         -2.4618455085        2.3751492019       -0.1207137393
 H          2.3734122187        1.9974509689        1.4469977993
 H          2.3291246869        3.6205252781        0.7127687428
 H          3.1771267554        2.2960303595       -0.1200266869
 H          1.8805739076       -2.7020689163        0.1089172738
  23
        -44.66119701
 C         -4.1627315563       -0.5145408589        0.0488761156
 O         -3.1961258665        0.5209779837       -0.0173644724
 C         -1.8870062687        0.1810146600       -0.0128747380
 C         -1.3849551467       -1.1024696637        0.0545505173
 C         -0.0048792406       -1.3471106670        0.0397018949
 C          0.8928538501       -0.2675270752       -0.0371175300
 C          0.4118093781        1.0383796214       -0.0670241133
 C         -0.9811434494        1.2580830590       -0.0701549168
 O         -1.4678566930        2.5031964524       -0.1291863198
 O          1.1159734488        2.2052182378       -0.1369265211
 C          2.4106174778        2.3385822782        0.4356025180
 Cl         2.5904566533       -0.6123203691       -0.1410501536
 C          0.4155078115       -2.7356777198        0.0972759646
 O          1.5501053454       -3.1768379964        0.1009174438
 H         -4.0661875585       -1.0832022006        0.9764060773
 H         -4.0813211013       -1.1832707396       -0.8108545110
 H         -5.1226262154       -0.0046782495        0.0284394728
 H         -2.0473605919       -1.9495954648        0.1119868793
 H         -0.7281722633        3.1399454252       -0.1552552248
 H          2.5340731636        3.4078635838        0.5979910349
 H          3.1833840374        1.9804024420       -0.2439131229
 H          2.4802324675        1.8084903103        1.3849315468
 H         -0.4344738653       -3.4402818655        0.1442927840
  23
        -44.66111979
 C         -3.9895548450       -0.7909487985        0.0016669954
 O         -3.1019718584        0.3148291030        0.0019675377
 C         -1.7631611856        0.0671872255        0.0005812459
 C         -1.1673957015       -1.1746463968       -0.0109253872
 C          0.2258975012       -1.2922265432       -0.0087339899
 C          1.0324077097       -0.1409603263        0.0078069464
 C          0.4566478392        1.1276793078        0.0113063677
 C         -0.9551437990        1.2158476881        0.0075256120
 O         -1.5006728659        2.4416297109        0.0119451828
 O          1.0281846411        2.3537127281        0.0293546693
 C          2.4214793859        2.5837331819       -0.0875155196
 Cl         2.7560486585       -0.3722487303        0.0393933217
 C          0.7777841162       -2.6366987426       -0.0239386564
 O          0.1134557806       -3.6572016991       -0.0292581838
 H         -4.9854144558       -0.3551508192        0.0075305172
 H         -3.8475419902       -1.4062962873        0.8921811473
 H         -3.8554884444       -1.4001451012       -0.8943023442
 H         -1.7334176174       -2.0917285355       -0.0211185909
 H         -2.4730124658        2.3669610306        0.0107121682
 H          2.9666633156        2.2090945619        0.7798818153
 H          2.5065300319        3.6681450030       -0.1290311849
 H          2.8267790408        2.1502540428       -1.0026319841
 H          1.8768138125       -2.7058320310       -0.0330510961
  23
        -44.66103869
 C         -3.9811035727       -0.7443385276       -0.0769354160
 O         -3.0780183827        0.3446639288        0.0235388154
 C         -1.7442393675        0.0805394883        0.0302890967
 C         -1.1640755194       -1.1640547555       -0.0573535506
 C          0.2296810751       -1.3109433295       -0.0358017346
 C          1.0386043442       -0.1741648072        0.0754592629
 C          0.4760010750        1.0997889688        0.1366244870
 C         -0.9234972815        1.2258601114        0.1179393511
 O         -1.4582168678        2.4508404667        0.1815674734
 O          1.1797901102        2.2629762641        0.2765334759
 C          2.1403830745        2.5941046295       -0.7253495502
 Cl         2.7554647751       -0.3479157836        0.1898802575
 C          0.7765815130       -2.6551598449       -0.1239603802
 O          0.1104511075       -3.6703941338       -0.1992477901
 H         -4.9706044750       -0.2945896175       -0.0614103227
 H         -3.8682251093       -1.4245662053        0.7692502070
 H         -3.8341344089       -1.2882765089       -1.0118327102
 H         -1.7445965320       -2.0687746886       -0.1397070761
 H         -2.4316529208        2.3883279098        0.1766824843
 H          3.1198380921        2.1713843501       -0.4948108892
 H          2.1999691441        3.6804221597       -0.7139701836
 H          1.8141712220        2.2517685526       -1.7083491785
 H          1.8762712782       -2.7189447213       -0.1233389361
  23
        -44.66061241
 C         -4.1493707060       -0.4611262621       -0.1142832684
 O         -3.1677309158        0.5547572300        0.0142457686
 C         -1.8652136569        0.1961446254        0.0187868927
 C         -1.3797481215       -1.0899581315       -0.0945462048
 C         -0.0033810034       -1.3649478948       -0.0609498625
 C          0.9030810863       -0.3036269367        0.0702642426
 C          0.4369061397        1.0060390629        0.1462298939
 C         -0.9430937765        1.2590256845        0.1457698600
 O         -1.4024857771        2.5075777216        0.2697786640
 O          1.2326855651        2.1189770900        0.2907979619
 C          2.1100734274        2.4297935124       -0.7927293398
 Cl         2.5992836817       -0.6183998741        0.1879832200
 C          0.4048511446       -2.7561414993       -0.1539463425
 O          1.5372266435       -3.2000278330       -0.1343312009
 H         -4.0427878515       -0.9918089073       -1.0628184329
 H         -5.1013185531        0.0632667244       -0.0909899991
 H         -4.0953391829       -1.1660275349        0.7181142724
 H         -2.0551192761       -1.9227243394       -0.1978994281
 H         -0.6476172476        3.1161921107        0.3954270637
 H          2.8708224905        1.6622986318       -0.9278343672
 H          2.5800943371        3.3687753171       -0.5127204096
 H          1.5442798116        2.5513532512       -1.7191080350
 H         -0.4473218560       -3.4525535324       -0.2514661409
  23
        -44.66006503
 C         -4.1646139448       -0.5028556385       -0.0464887729
 O         -3.1880281326        0.5230501205        0.0211179282
 C         -1.8730026354        0.1700926221        0.0165158921
 C         -1.3785235348       -1.1134616225       -0.0488501993
 C          0.0030532200       -1.3492958166       -0.0377224105
 C          0.8935174022       -0.2634091121        0.0380162151
 C          0.4162967194        1.0478138726        0.0674611539
 C         -0.9785007069        1.2549620313        0.0662270878
 O         -1.4294231029        2.5163494940        0.1104654072
 O          1.1215732183        2.2019805059        0.1453096674
 C          2.4105067107        2.3408843854       -0.4359257061
 Cl         2.5914277799       -0.6021371381        0.1453044113
 C          0.4295156952       -2.7364282441       -0.0972187412
 O          1.5647492907       -3.1744922290       -0.1098992681
 H         -4.0688758642       -1.0733905001       -0.9723510484
 H         -5.1204461631        0.0147822558       -0.0299824818
 H         -4.0906718420       -1.1705942495        0.8140546951
 H         -2.0398973463       -1.9616967125       -0.1032816344
 H         -2.4048000973        2.5168685768        0.1107828236
 H          2.5165617204        3.4099586047       -0.6134515468
 H          2.4835801707        1.8001621781       -1.3793915375
 H          3.1924684871        2.0031113834        0.2451112689
 H         -0.4186244735       -3.4441119728       -0.1373633817
  23
        -44.66004861
 C         -4.0347669118        1.0737208618       -0.0386215028
 O         -3.2620025117       -0.1180261261        0.0386438418
 C         -1.9090088576       -0.0860706256        0.0157378693
 C         -1.2915439504       -1.3269163571        0.0801456474
 C          0.0936053309       -1.4780229019        0.0521842357
 C          0.9051360480       -0.3306715144       -0.0366913503
 C          0.3184725341        0.9271229008       -0.0619885978
 C         -1.0936736072        1.0548178336       -0.0519342704
 O         -1.6164127107        2.2932301044       -0.1095135810
 O          0.9311563287        2.1447188186       -0.1367168263
 C          2.2210816870        2.3774175979        0.4137482019
 Cl         2.6232122548       -0.5457077012       -0.1628462457
 C          0.6162183234       -2.8331603730        0.1091309095
 O          1.7803483914       -3.1861394512        0.1025821617
 H         -5.0664672840        0.7297208336       -0.0171656567
 H         -3.8415223073        1.6119623784       -0.9664803272
 H         -3.8428879295        1.7263797382        0.8129701068
 H         -1.9255560983       -2.1960231513        0.1443808230
 H         -0.8894569045        2.9441236818       -0.1427712202
 H          3.0069851671        2.0818767469       -0.2803320135
 H          2.3483321579        1.8519118960        1.3594921230
 H          2.2636163673        3.4527606192        0.5778369842
 H         -0.1806392202       -3.5955967653        0.1665615642
  23
        -44.65973632
 C         -3.9844114045        0.8225178766       -0.0377101237
 O         -3.1249796574       -0.3086110966        0.0351171559
 C         -1.7792266949       -0.1771388444        0.0106145695
 C         -1.0684674047       -1.3675697909        0.0718380148
 C          0.3223168056       -1.4111533142        0.0414271594
 C          1.0442728357       -0.2089527828       -0.0468778849
 C          0.3672832022        1.0007757576       -0.0683695008
 C         -1.0506540667        1.0216373186       -0.0553893687
 O         -1.6633817942        2.2189104379       -0.1098454651
 O          0.8955281028        2.2595984625       -0.1422777777
 C          2.1424949018        2.5794850975        0.4631011419
 Cl         2.7735171291       -0.2869759512       -0.1853929800
 C          0.9727095196       -2.7114471412        0.0998871245
 O          0.3921188340       -3.7778565581        0.1571435893
 H         -3.8410914113        1.4846274099        0.8162539890
 H         -4.9875295152        0.4024628742       -0.0168054773
 H         -3.8327520059        1.3767118521       -0.9639799021
 H         -1.6105940284       -2.2975087264        0.1356672652
 H         -0.9870104201        2.9221393817       -0.1441555791
 H          2.2750670908        2.0447693533        1.4033731178
 H          2.0976855475        3.6508175592        0.6508277514
 H          2.9747207914        2.3642225007       -0.2070398992
 H          2.0749995396       -2.6925086247        0.0948676127
  23
        -44.65937642
 C         -3.9953394757        1.1240863508        0.0182352377
 O         -3.2432422035       -0.0797883102       -0.0766796814
 C         -1.8918503867       -0.0708071465       -0.0244435392
 C         -1.2886385917       -1.3148721666       -0.1340385595
 C          0.0945581081       -1.4945891729       -0.0807554314
 C          0.9145570781       -0.3641230755        0.0680518876
 C          0.3405404002        0.8977369283        0.1368191996
 C         -1.0613997759        1.0568065682        0.1192068128
 O         -1.5565779972        2.2989990476        0.2470535523
 O          1.0377377813        2.0738538304        0.2911430463
 C          1.9393073365        2.4421699445       -0.7536769236
 Cl         2.6279072835       -0.5511176000        0.2161999627
 C          0.6071065917       -2.8524718517       -0.1723278494
 O          1.7686515011       -3.2087117327       -0.1300377875
 H         -5.0318491400        0.8040189425       -0.0601577168
 H         -3.7546907116        1.8066955338       -0.7967555604
 H         -3.8307549094        1.6198764709        0.9749190513
 H         -1.9341871102       -2.1705476877       -0.2489405981
 H         -0.8112763422        2.9192460876        0.3778310494
 H          1.4192576676        2.4725709386       -1.7135668821
 H          2.7833124776        1.7575001516       -0.8177861203
 H          2.2903742033        3.4347120116       -0.4838227445
 H         -0.1904510001       -3.6065908730       -0.2917485144
  23
        -44.65923225
 C         -3.9433947109        0.8794347517       -0.0288036507
 O         -3.1053831286       -0.2655926192        0.0740955915
 C         -1.7596501050       -0.1597700431        0.0158816565
 C         -1.0651291780       -1.3570272031        0.1101930474
 C          0.3260768027       -1.4329860805        0.0519102398
 C          1.0589535182       -0.2473812202       -0.0886433203
 C          0.3958465354        0.9685832491       -0.1464724437
 C         -1.0130808497        1.0268024639       -0.1200837326
 O         -1.5956547484        2.2327999056       -0.2343504936
 O          1.0233906487        2.1875565554       -0.2916461431
 C          1.8091600650        2.6303246640        0.8169127579
 Cl         2.7823019457       -0.2896732986       -0.2449463636
 C          0.9632921547       -2.7392003443        0.1363182180
 O          0.3740706217       -3.7959652094        0.2425981728
 H         -4.9538361407        0.4845671484        0.0484525327
 H         -3.8128304569        1.3808162524       -0.9879363883
 H         -3.7560295211        1.5819543239        0.7833595281
 H         -1.6229259883       -2.2738468755        0.2187443009
 H         -0.8995805356        2.9041329466       -0.3814565254
 H          2.1584970727        3.6208146859        0.5378686532
 H          2.6623847943        1.9761577101        0.9932608968
 H          1.1990635055        2.6843821076        1.7213672925
 H          2.0651511839       -2.7264699317        0.1004018174
