  23
        -44.66714370
 C         -3.9379499365       -0.5962747431        0.0027410866
 O         -2.9741188910        0.4431660739       -0.0005575737
 C         -1.6538296677        0.1046184239       -0.0005991969
 C         -1.1565204151       -1.1773413945        0.0001213801
 C          0.2271002138       -1.3991144645       -0.0001806255
 C          1.0824425957       -0.2984850607       -0.0004916211
 C          0.6037375352        1.0181381715       -0.0010616292
 C         -0.7836311360        1.2194319011       -0.0017582351
 O         -1.3199741539        2.4579074007       -0.0036454013
 O          1.5634780327        1.9749676601       -0.0014188156
 C          1.2300919803        3.3565914730        0.0057992633
 Cl         2.7985248453       -0.4940222006       -0.0002786203
 C          0.7135892125       -2.7693922498        0.0000149777
 O          0.0026359124       -3.7563632312        0.0008910470
 H         -3.8452330509       -1.2179810361       -0.8897615381
 H         -4.9004024366       -0.0907266485        0.0037179353
 H         -3.8419421051       -1.2152217442        0.8968131766
 H         -1.7925102297       -2.0469702368        0.0006342552
 H         -2.2922511304        2.3856213572       -0.0034170617
 H          0.6656020162        3.6225751968        0.8993977042
 H          0.6653691062        3.6319101661       -0.8848006829
 H          2.1913302169        3.8660158565        0.0083634135
 H          1.8096145053       -2.8748103188       -0.0006944545
