! pbe def2-sv(p) def2/J RI DEFGRID1 loosescf d4 GCP(DFT/SV(P)) printgap
%output
    printlevel normal
end
* xyz 0 1
C 3.0602323397 -0.9402778992 -3.041172344
C 3.7295663004 -1.3451785602 -1.7454837741
O 3.4404371113 -0.4518813023 -0.6551483985
P 1.9999598732 0.1179793138 -0.281388053
S 1.4380316542 1.6526228364 -1.3571834981
O 2.1886341245 0.5303324374 1.2272826195
C 2.902258068 -0.262255307 2.2122841304
C 4.3177513649 0.2515578323 2.3750137061
S 0.8613724457 -1.7044406549 -0.2518031642
C -0.1732324371 -1.556086001 1.2431456951
S -1.9429361271 -1.4964903668 0.8859272044
P -1.9528800062 0.5207219272 0.2223128922
S -0.9402955395 1.7138832406 1.4048252215
O -3.4815262754 0.8834865575 0.0085136064
C -4.3207486556 1.3763797007 1.070259496
C -4.5364260247 0.3472878032 2.1602703343
O -1.3918636435 0.5062932299 -1.2492462977
C -2.1159437788 0.1553835666 -2.4541878585
C -2.5228445693 -1.3030472691 -2.482107609
H 1.976969587 -0.9802766972 -2.9266279656
H 3.3365106288 0.0762195454 -3.3118929239
H 3.3594770581 -1.6213881545 -3.8311979628
H 4.8170194488 -1.3062653656 -1.8301299785
H 3.4143524454 -2.3498748514 -1.4493298189
H 2.3281247387 -0.1376250451 3.1329484524
H 2.8969229232 -1.310814851 1.9043172013
H 4.8120300915 -0.3128797572 3.1595483377
H 4.8680087055 0.1381714109 1.4446822855
H 4.300828569 1.3042850107 2.6437658382
H 0.1011892726 -0.6486567293 1.7834410345
H -0.0073777206 -2.4503535566 1.8375472814
H -3.8610138549 2.2808055575 1.4800972233
H -5.2526670082 1.6300485333 0.5628050845
H -5.2794513447 0.7192779553 2.8583472941
H -4.8786715592 -0.592408933 1.7343233813
H -3.6051998641 0.1732368976 2.6968094881
H -2.9849923734 0.8110241311 -2.5314662816
H -1.3993981251 0.3944816357 -3.2425770862
H -3.2702862069 -1.5041977637 -1.7173957677
H -2.943413412 -1.5291898265 -3.4569400526
H -1.6596837035 -1.9425206674 -2.3096986595
*
