! r2scan-3c def2/J RI DEFGRID2 scfconv6 printgap
%output
    printlevel normal
end
* xyz 0 1
C 0.610093352 1.7018503895 -0.0355919552
C 1.3939301808 0.4040262603 -0.2508532197
H 1.6094991743 0.2756797846 -1.3174404042
C 0.5464229597 -0.7925158984 0.2191586319
H 0.357144158 -0.7041954411 1.303070957
C -0.8037172151 -0.7666741515 -0.5130186682
H -0.6260483076 -0.9185759261 -1.5817419054
C -1.4676752346 0.6109182109 -0.2974201081
H -2.3541020388 0.6838237211 -0.9416550446
O -0.6392543289 1.6685212174 -0.7094732302
O -1.8067464316 0.7031987208 1.0523091253
O -1.6689638679 -1.7926333073 -0.1188928332
O 1.198975278 -2.0096183648 -0.0500059795
O 2.6458712684 0.4169613544 0.3888391346
H 1.1441814728 2.5547454479 -0.4536844246
H 0.4472167913 1.854738898 1.0396229028
H -2.3969637787 1.4570345672 1.2022570707
H -1.8985488524 -1.6656331913 0.8154233607
H 2.1443513136 -1.8929094317 0.1371799665
H 2.5356761933 0.6496923504 1.3231873863
*
