! r2scan-3c def2/J RI DEFGRID2 scfconv6 printgap
%output
    printlevel normal
end
%cpcm
    smd true
    smdsolvent "water"
end
* xyz 0 1
C 5.4244649319 -2.0207805221 -2.0413953952
C 4.9448510362 -1.2316654674 -0.8334674541
O 3.6385931832 -1.6722588341 -0.413906777
C 2.5818284383 -1.1461247885 -0.9984332742
O 2.6179966493 -0.2888128772 -1.852389507
C 1.2983760191 -1.7612127935 -0.4675336245
C 0.2586913387 -0.6667369208 -0.2766101876
H 0.1988600252 -0.0549119418 -1.1877504668
C 0.5836117845 0.281675322 0.8592641424
O -0.2817291588 0.7704235865 1.5581016034
O 1.8652655294 0.5042822949 0.9790459956
C 2.3000192593 1.4893551414 1.9434612258
C 2.2591628098 2.88138236 1.3363806163
S -1.397494396 -1.3565120837 0.0379797495
P -2.4867282996 0.4699209557 0.1212991454
S -1.7472556163 2.0074494672 -0.8401372425
O -3.8883459109 -0.017398601 -0.5024072475
C -4.0141987195 -0.3498248093 -1.8869931705
O -2.9728118204 0.7670042417 1.5930962477
C -3.6356784157 -0.2259959171 2.4003197149
H 4.7794221345 -1.8258394775 -2.8950673628
H 6.4364092375 -1.7179471697 -2.2893123801
H 5.4117993775 -3.0848711216 -1.8225485085
H 4.8941925211 -0.1638528021 -1.0638783515
H 5.5822045855 -1.4061718381 0.0333044933
H 1.503880909 -2.2892325483 0.4621199616
H 0.929019183 -2.4736943962 -1.2077695361
H 1.6500111226 1.4266614344 2.8202825277
H 3.3171686636 1.1892809315 2.1944511144
H 2.8646394455 2.9158383933 0.4344828304
H 1.235959661 3.1482290472 1.0765383513
H 2.6396552498 3.599734278 2.0546861564
H -3.5246297798 -1.3032890267 -2.0853705868
H -3.5688675145 0.4338744879 -2.5024437258
H -5.0822049516 -0.4196754322 -2.0763067368
H -3.0209356075 -1.1239192385 2.46631942
H -4.6055405405 -0.4659853521 1.9682416315
H -3.7468592193 0.2357931161 3.3778884684
*
