! wb97x-v def2-tzvp def2/J RIJCOSX DEFGRID2 scfconv7 GCP(DFT/TZ) printgap
%output
    printlevel normal
end
%cpcm
    smd true
    smdsolvent "water"
end
* xyz 0 1
C -0.692899194001343 -0.6211309016402463 -0.31850138277128975
C 0.6937786563040285 -0.5879541322563967 0.28537703122136093
O 1.452253076820276 0.5450756026442081 -0.1663531165431969
O -1.4560330690473768 0.5450497484146073 0.04119694343429733
H -1.207105028125138 -1.5393171925004938 -0.0009022319113394979
H -0.6306243009024138 -0.6161855011408189 -1.411368621599633
H 1.246382502113136 -1.4820732567969421 -0.021496162652155985
H 0.622188313376667 -0.5874336921305177 1.3839597680662663
H 0.9323109593896849 1.3303176869626718 0.052587182011443113
H -1.5863004196326211 0.5189262841321575 0.9986045732809354
*
