! r2scan-3c def2/J RI DEFGRID2 scfconv6 printgap
%output
    printlevel normal
end
%cpcm
    smd true
    smdsolvent "water"
end
* xyz 0 1
C 4.6830029468 0.2664982212 -1.8047050092
C 4.4568449219 1.1764189931 -0.6146706837
O 3.5950936882 0.5838881735 0.3722317545
P 2.055872276 0.2980854138 0.1080001363
S 1.1436504948 1.6998051222 -0.9123842473
O 1.4635393112 0.1669044835 1.5625764143
C 1.6712943713 -0.9251484708 2.4943911194
C 3.1334578739 -1.2166752601 2.749379588
S 2.0208147618 -1.6468074271 -0.7494466841
C 0.2978029756 -1.653220846 -1.2834364794
S -0.8742392501 -1.7776771793 0.1149113097
P -2.0060762865 -0.0234840671 -0.1322813598
S -2.1622259053 0.6745344054 -1.9613775616
O -1.4176838734 0.9170383322 0.9938025483
C -1.655917844 2.3381180865 1.0178011258
C -3.1174595736 2.6647511862 1.232545484
O -3.3920164146 -0.4457859944 0.523335471
C -4.3494158818 -1.2539301946 -0.188489547
C -5.7048531311 -1.0565757933 0.4598624573
H 5.0061648778 -0.7174243916 -1.4748617711
H 3.7614651551 0.1616891121 -2.3750279214
H 5.443352085 0.7003217023 -2.4461883772
H 4.0148739728 2.1251838815 -0.9351394147
H 5.3826693343 1.3640482441 -0.0692077377
H 1.1635092081 -0.5763840411 3.3949059548
H 1.1571214657 -1.8086844648 2.1047061715
H 3.6500079348 -0.3131940537 3.0625696518
H 3.2096498149 -1.9651936708 3.5321308775
H 3.6058275532 -1.5985443762 1.8467814625
H 0.1740154439 -2.5373934136 -1.9030058449
H 0.0719792063 -0.7421002887 -1.8447010509
H -1.0294457677 2.6890259047 1.8394793041
H -1.291146676 2.765251612 0.0774009614
H -3.2317736677 3.7388418784 1.3406776698
H -3.6985015167 2.3314334718 0.373214332
H -3.4863852816 2.165306006 2.1245631898
H -4.35601742 -0.9420742212 -1.2386025776
H -4.0258030918 -2.2964419263 -0.1267217432
H -5.6546810443 -1.3268620881 1.5104780646
H -6.0134628227 -0.0182705289 0.3772204197
H -6.4325124535 -1.6868222036 -0.0406046272
*
