! wb97x-v def2-tzvp def2/J RIJCOSX DEFGRID2 scfconv7 GCP(DFT/TZ) printgap
%output
    printlevel normal
end
%cpcm
    smd true
    smdsolvent "water"
end
* xyz 0 1
C -1.862989167575482 -1.4130833780329415 -8.043089390171631e-05
C -0.5391927832298357 -0.708997657483616 0.00012115760872202083
C 0.6705183470575017 -1.4042854133134337 0.00024816288808325815
C 1.8980014048746832 -0.7427007541373439 6.365996801301283e-05
C 1.9267469881066501 0.6487946234314846 -9.696481319778906e-05
C 0.735843273331891 1.3706446297692796 -0.00020292888221942399
C -0.4812051801633005 0.6925322740435678 -0.00020401561691729054
O -1.685457505963654 1.3644093105824924 -0.0006641729944363885
H -2.4559488529542963 -1.1480526454350253 -0.8825598964675843
H -1.720920578605619 -2.4962099266743136 0.005558606644190366
H -2.4610005350320723 -1.139303577870129 0.8762353919036626
H 0.6429679190697177 -2.4907061286026644 0.0005192954194154732
H 2.8221548063347957 -1.3112668951455095 0.00012063243893861661
H 2.8734674042820547 1.1799840664023418 -0.00015159297476008407
H 0.7434512283938219 2.457494871268348 -0.0003276028871379519
H -1.5115483178774336 2.3158700327051784 -0.0005310168363560543
*
