  17
  -29.5218026000000       0.129260275322601      !mtd6
 C         -2.9066938375        1.4629808204       -0.0001838781
 C         -1.8047606499        0.4540506448       -0.0001731287
 C         -2.0996153526       -0.9103694164        0.0001655839
 C         -1.0971000206       -1.8672575298        0.0003277848
 C          0.2301501114       -1.4834898094        0.0001266424
 C          0.5304936842       -0.1232441028       -0.0000842395
 C         -0.4750442448        0.8418972630       -0.0002289627
 N          1.8889551188        0.2907162810       -0.0000328185
 O          2.7630522598       -0.5652092336       -0.0005667522
 O          2.1386613300        1.4880833660        0.0006617432
 H         -3.5325496445        1.3330034350        0.8801305216
 H         -2.5093397212        2.4731551056       -0.0027897737
 H         -3.5359371173        1.3296341044       -0.8775487702
 H         -3.1329463239       -1.2217186698        0.0001367875
 H         -1.3504851937       -2.9149870270        0.0001871180
 H          1.0330803935       -2.2031481170        0.0001595096
 H         -0.1951700289        1.8843441226       -0.0007290036
  17
  -29.5218025400000       0.129252068629546      !input
 C         -2.9066665380        1.4630058379        0.0002723310
 C         -1.8047443838        0.4540505167        0.0006077022
 C         -2.0996107152       -0.9103711481       -0.0000079735
 C         -1.0971095732       -1.8672789069       -0.0007519436
 C          0.2301547699       -1.4835135846       -0.0006485840
 C          0.5305035079       -0.1232557816       -0.0000380697
 C         -0.4750296640        0.8419007203        0.0005982233
 N          1.8889231872        0.2907149424        0.0000377758
 O          2.1386756332        1.4880874443        0.0031409629
 O          2.7630069480       -0.5651944941       -0.0030283796
 H         -2.5093777650        2.4730968175        0.0152806150
 H         -3.5244598563        1.3411058235       -0.8869327560
 H         -3.5438775975        1.3217032517        0.8705497716
 H         -3.1329469795       -1.2217065107        0.0000284039
 H         -1.3504881891       -2.9150138614       -0.0013813186
 H          1.0330960763       -2.2031611461       -0.0011705316
 H         -0.1951642705        1.8843385495        0.0009361085
  17
  -29.5218024500000       0.129239759567146      !mtd8
 C         -2.9066928581        1.4629673427        0.0021033360
 C         -1.8047356832        0.4540609383        0.0006622134
 C         -2.0996098045       -0.9103686271       -0.0006911951
 C         -1.0971313772       -1.8672624786       -0.0018795420
 C          0.2301522884       -1.4834942730       -0.0018896032
 C          0.5305130839       -0.1232515182       -0.0003289616
 C         -0.4750366438        0.8419183404        0.0010104760
 N          1.8889281900        0.2907152769       -0.0000149592
 O          2.1386916398        1.4880596388        0.0071905957
 O          2.7630228504       -0.5651829391       -0.0066067337
 H         -3.5392163481        1.3275269026       -0.8725811486
 H         -3.5292571294        1.3350701067        0.8850644799
 H         -2.5093518940        2.4731360260       -0.0041777763
 H         -3.1329522884       -1.2216478828       -0.0013224154
 H         -1.3504724552       -2.9150071922       -0.0033926673
 H          1.0330474259       -2.2031872910       -0.0027056143
 H         -0.1951343570        1.8843433805        0.0021298786
  17
  -29.5218024300000       0.129237024379412      !mtd2
 C         -2.9066582247        1.4630107536       -0.0003885322
 C         -1.8047542215        0.4540418386        0.0007373706
 C         -2.0996067096       -0.9103730986        0.0001401416
 C         -1.0970967893       -1.8672790471       -0.0003396602
 C          0.2301555001       -1.4835154288       -0.0003559593
 C          0.5304961841       -0.1232572307        0.0000327303
 C         -0.4750333672        0.8418936300        0.0005740965
 N          1.8889316861        0.2907202957        0.0000142924
 O          2.7630262782       -0.5651893245        0.0007150011
 O          2.1386389205        1.4880863930       -0.0007269019
 H         -3.5168037949        1.3481572877       -0.8938581299
 H         -3.5513129540        1.3148686349        0.8631809375
 H         -2.5095204467        2.4729390188        0.0256123870
 H         -3.1329369573       -1.2217223924        0.0003093180
 H         -1.3504748627       -2.9150139197       -0.0004584756
 H          1.0331090705       -2.2031456469       -0.0006735636
 H         -0.1951800245        1.8843336618        0.0011088441
  17
  -29.5218022900000       0.129217879684084      !gc
 C         -2.9066642150        1.4630130679        0.0026415061
 C         -1.8047542995        0.4540452536        0.0002118177
 C         -2.0996102593       -0.9103730776       -0.0010098149
 C         -1.0971012794       -1.8672767093       -0.0019334747
 C          0.2301582112       -1.4835080095       -0.0016447938
 C          0.5305018661       -0.1232499515       -0.0002502860
 C         -0.4750362565        0.8419006593        0.0007237181
 N          1.8889236245        0.2907155570        0.0000252070
 O          2.1386838743        1.4880650566        0.0072618309
 O          2.7630011130       -0.5651827265       -0.0068193237
 H         -3.5173488242        1.3464960532        0.8955318831
 H         -2.5095637897        2.4730067355       -0.0213989755
 H         -3.5508148065        1.3163961430       -0.8615637247
 H         -3.1329435100       -1.2217171622       -0.0013134491
 H         -1.3504751986       -2.9150111964       -0.0028062725
 H          1.0331037340       -2.2031495831       -0.0022701531
 H         -0.1951771315        1.8843401548        0.0014770934
  17
  -29.5218021100000       0.129193269243035      !md4
 C         -2.9066732310        1.4630182952        0.0004746405
 C         -1.8047798466        0.4540381128        0.0014033099
 C         -2.0996121010       -0.9103825201       -0.0000046964
 C         -1.0970901854       -1.8672754335       -0.0014947022
 C          0.2301577691       -1.4835089911       -0.0014121684
 C          0.5304915036       -0.1232475202       -0.0001477156
 C         -0.4750527169        0.8418878527        0.0011662072
 N          1.8889309921        0.2907268447        0.0000612012
 O          2.7630414821       -0.5652020793        0.0038560554
 O          2.1386729751        1.4880836757       -0.0035346977
 H         -2.5098309927        2.4726459419        0.0395486566
 H         -3.5084942299        1.3569123417       -0.8997732665
 H         -3.5592897372        1.3065083612        0.8564937563
 H         -3.1329378207       -1.2217527541        0.0000770825
 H         -1.3504754410       -2.9150087994       -0.0023395477
 H          1.0330918659       -2.2031710825       -0.0022117495
 H         -0.1952268234        1.8843373813        0.0024335729
  17
  -29.5216798100000       0.113510150567428      !gc
 C         -2.8956685068        1.4731843957        0.0016655783
 C         -1.8089979825        0.4475521888       -0.0079004845
 C         -2.1009672626       -0.9151972101       -0.0012098515
 C         -1.0951414561       -1.8710580032        0.0056163952
 C          0.2304086255       -1.4859130242        0.0060200047
 C          0.5286456482       -0.1240608921        0.0001779132
 C         -0.4776377312        0.8377628513       -0.0068125455
 N          1.8868060999        0.2920494756       -0.0005712749
 O          2.1345747246        1.4896086125       -0.0115110104
 O          2.7619116153       -0.5625265762        0.0109687739
 H         -3.8471690201        1.0345364729       -0.2825113357
 H         -2.9947298511        1.8932906980        1.0013908306
 H         -2.6585183085        2.2873533375       -0.6779941759
 H         -3.1324725825       -1.2323157785       -0.0020869339
 H         -1.3476474620       -2.9190051749        0.0092605272
 H          1.0346975507       -2.2039901005        0.0094538811
 H         -0.2029385935        1.8816382640       -0.0118536117
  17
  -29.5216594400000       0.111089572606747      !gc
 C         -2.8942799066        1.4745240091       -0.0044109843
 C         -1.8095159309        0.4467163725        0.0042609494
 C         -2.1011288540       -0.9158173783        0.0020534727
 C         -1.0948962535       -1.8716007871       -0.0007227173
 C          0.2304374740       -1.4862861438       -0.0013134076
 C          0.5284161745       -0.1242130306        0.0001756217
 C         -0.4779495134        0.8372175069        0.0030152378
 N          1.8865397783        0.2922320990       -0.0000618148
 O          2.1339470865        1.4898916110        0.0010927050
 O          2.7618572395       -0.5621855601       -0.0010908986
 H         -2.9208224455        1.9751363612       -0.9707062263
 H         -3.8630820987        1.0199893668        0.1771540337
 H         -2.7068599299        2.2305642341        0.7540124557
 H         -3.1324438110       -1.2335631302        0.0025970740
 H         -1.3472888475       -2.9195797428       -0.0015583830
 H          1.0349059005       -2.2041633908       -0.0021555882
 H         -0.2039252276        1.8812937877        0.0050431913
