! pbe def2-sv(p) def2/J RI DEFGRID1 loosescf d4 GCP(DFT/SV(P)) printgap
%output
    printlevel normal
end
* xyz 0 1
C 5.7104526316 -0.1635290896 0.3642269823
C 4.3935075733 -0.6351740092 -0.2184283594
O 3.3398033845 0.1512405609 0.3712245653
P 1.8896761608 0.217147401 -0.2780621907
S 1.8867313196 0.571077353 -2.2109832618
O 1.1818769918 1.2598969836 0.6748601733
C 1.1897535593 2.6754524014 0.4079080463
C 2.5788197818 3.2640233548 0.5238669858
S 1.0702772712 -1.6174642764 0.339812694
C -0.1460459827 -1.924517628 -0.9859441214
S -1.8385086791 -2.0485829909 -0.3700954759
P -2.118261776 0.0007819915 0.1221939906
S -1.546881317 1.2954855999 -1.2285014703
O -1.396572247 0.2151715139 1.5065572282
C -1.726329699 -0.5604032837 2.6907591424
C -0.5348791201 -0.5160698511 3.6239920315
O -3.6492966899 0.0750914368 0.5430399975
C -4.7165793753 0.2902182806 -0.3987713059
C -4.8677558555 -0.8583835168 -1.3744751636
H 5.8815197373 0.8789590129 0.1112025184
H 5.6931515253 -0.2655035082 1.4452892351
H 6.5150551161 -0.767149174 -0.0424305515
H 4.2069123543 -1.6865626864 0.0170099471
H 4.3609550381 -0.5009309857 -1.3050931916
H 0.7736316603 2.8426495633 -0.5916370438
H 0.5054964738 3.0823318916 1.1541817072
H 3.2139926865 2.8652875441 -0.2663560407
H 2.5203933388 4.3429464854 0.4193211625
H 3.0129829521 3.0121549762 1.4878366803
H 0.0839935376 -2.8873138253 -1.4345882939
H -0.0705477669 -1.1186996782 -1.7216077959
H -2.6117819547 -0.1076911459 3.1403654386
H -1.9580028209 -1.5850035461 2.3850510291
H 0.3317176574 -0.9698612228 3.1494615498
H -0.2949583821 0.5134352252 3.8740665963
H -0.774425452 -1.0622889578 4.5305547942
H -5.5981480199 0.4000830967 0.2344322307
H -4.5211884087 1.2256190382 -0.9318828407
H -4.0109880735 -0.8938536571 -2.0455561543
H -4.9354116108 -1.8030793693 -0.8408682532
H -5.7673957686 -0.71019159 -1.963175413
*
