! wb97x-v def2-tzvp def2/J RIJCOSX DEFGRID2 scfconv7 GCP(DFT/TZ) printgap
%output
    printlevel normal
end
* xyz 0 1
C 4.239851153364061 -0.26434581629550424 -2.7736348213036965
C 4.748993429470283 -0.6720729555525811 -1.4131348846698815
O 3.661327559185266 -0.8649757423964014 -0.44324617353673906
P 2.9047439926082976 0.3652908992200124 0.25685666065560364
S 3.9233995791967775 1.973184598427865 0.6600669153085519
O 2.322555370681473 -0.49104619079583034 1.4889977505537977
C 1.479906727108145 0.17088239599656552 2.493658694347464
C 1.056124218888304 -0.8818448406894923 3.4837785989743715
S 1.257333054630685 0.9000250787968352 -0.9519502515288295
C 0.5105606868615054 -0.744831296025108 -1.3143822461520442
S -0.6797329864928756 -1.405891468032085 -0.08091034258490604
P -2.247426219975699 0.008587953115363844 -0.24511458950080378
S -2.5185470187934236 0.7821809204645227 -2.0113977300988655
O -1.9115017484126546 1.0227089003202487 0.9531337422934864
C -2.474074109437276 2.3826605903688245 1.0010874052886494
C -3.93838262948974 2.372509447921184 1.3625959188461954
O -3.473618055878923 -0.813282605678559 0.4017743796887691
C -4.21659093900938 -1.7994546414672703 -0.3961391428922412
C -5.270330099666625 -2.3920389821119805 0.5026283121635907
H 5.0780026298618 -0.29380180933447125 -3.4774897020970315
H 3.468420034091739 -0.9548660817380483 -3.1276562721646455
H 3.835085896093324 0.7509124887492896 -2.7691341251099986
H 5.451207743526155 0.05894528671669985 -1.0010000460025994
H 5.231550210001414 -1.6507434076846363 -1.4430584839466605
H 2.071997185392318 0.9596936975037772 2.9682754645811387
H 0.6190591270617467 0.6182324086288461 1.985424952600254
H 0.4280066675489373 -0.4141340591025156 4.248157680774125
H 0.47634853751774436 -1.6697450660009814 2.995005090555285
H 1.9245173937910192 -1.3287420513485277 3.9760076075145765
H 1.2965737313453831 -1.5003664270867452 -1.4036667158390752
H 0.003992224789220315 -0.6401661809563562 -2.277621218858252
H -1.8711984674366624 2.877013170137542 1.7651562161012733
H -2.290921528415564 2.862909316206019 0.03503568762408874
H -4.273197727328101 3.4074800517335015 1.487622281455126
H -4.545202485743482 1.9126746191986437 0.5769842782030757
H -4.106724960622056 1.8394229370627189 2.302544526047382
H -4.65576557977908 -1.2818024359383478 -1.25413440044397
H -3.513347043412638 -2.559333865102233 -0.7533479326251766
H -5.8468067557140575 -3.1281263807298934 -0.06580539034159907
H -4.817147925309073 -2.8961563156711443 1.3607283315024763
H -5.955511523026586 -1.618773512422235 0.8614390533666665
*
