! r2scan-3c def2/J RI DEFGRID2 scfconv6 printgap
%output
    printlevel normal
end
* xyz 0 1
C 4.1825658171 0.1272162537 -2.6130976915
C 4.3128733083 -1.2482765563 -1.9792249578
O 3.0152336579 -1.7276207222 -1.5763180336
C 2.6767853453 -1.6699804177 -0.3070405914
O 3.4022337065 -1.3182732322 0.5971096828
C 1.2340047245 -2.1037867588 -0.1013024108
C 0.3121458705 -0.9380838373 -0.4879476489
H 0.3210244105 -0.7830257775 -1.5692521574
C 0.8466759448 0.3127477456 0.1837484099
O 1.7351805521 0.9675713183 -0.3111987995
O 0.3078958748 0.5233651867 1.3656127245
C 0.8602082199 1.5733023926 2.1832167634
C 1.9420242457 1.0082480649 3.0882777459
S -1.3838982648 -1.3399678158 0.0475909872
P -2.2326610504 0.6050874614 0.0330827796
S -1.3679940886 1.9228135435 -1.1315870051
O -3.7580486023 0.2933895948 -0.3325669366
C -4.1344635947 -0.1530799473 -1.6407717871
O -2.3965733563 1.1049930996 1.5211609176
C -3.0481963373 0.3010911264 2.5280931731
H 3.7113548142 0.8141123978 -1.9122926836
H 5.1671798999 0.5010136938 -2.8730304606
H 3.5694728385 0.0729537263 -3.5081097976
H 4.9590413394 -1.2154080006 -1.0976828693
H 4.6817126369 -1.9846443448 -2.694617836
H 1.090178925 -2.3524523188 0.9506391765
H 1.0106356121 -2.9651709639 -0.728821769
H 1.2582084299 2.3482801117 1.521876696
H 0.0132133121 1.962522224 2.7491227409
H 1.5247721103 0.2526031356 3.7476927265
H 2.7295580819 0.5545604187 2.4880713624
H 2.3666027106 1.8103844859 3.6822941915
H -3.8246384855 -1.1883657936 -1.7809964766
H -3.6755008209 0.481654725 -2.4003149569
H -5.2173729184 -0.0673147126 -1.6783564911
H -2.5414429968 -0.6594265971 2.6191732763
H -4.092398489 0.1509674835 2.2623490257
H -2.9616150708 0.8729215297 3.4481459075
*
