! pbe def2-sv(p) def2/J RI DEFGRID1 loosescf d4 GCP(DFT/SV(P)) printgap
%output
    printlevel normal
end
* xyz 0 1
C 3.7378682454 -0.1592627705 2.1807738123
C 4.1817444807 -0.7577936704 0.8625336718
O 3.6349282095 -0.0615991908 -0.2819628103
P 2.0972108617 0.1063751846 -0.6364024778
S 1.8902769739 0.4924373896 -2.5414988101
O 1.4897140727 1.2016800847 0.3602901529
C 1.4669817806 2.5966370143 0.0251260371
C 2.8515612514 3.2070070281 0.0828576239
S 1.2290773721 -1.6571488042 0.1105296413
C -0.1591881021 -1.8744258654 -1.0536239496
S -1.7541001163 -1.9613145928 -0.2167294397
P -1.9604004871 0.1103960087 0.2240551907
S -1.4673036149 1.3369333346 -1.2229128162
O -1.1202227484 0.382174998 1.5284283991
C -0.9964804704 -0.4828473217 2.6867490662
C -2.3312753348 -0.880773887 3.2762746307
O -3.4600076124 0.2583060961 0.7247833288
C -4.5576138341 0.5021016606 -0.1703767661
C -4.833162572 -0.6779923952 -1.0798668107
H 4.0378299604 0.8833666477 2.2448477643
H 2.6553394379 -0.2224365466 2.2748818127
H 4.1968839206 -0.7141029636 2.9929386862
H 3.8887816546 -1.8085877526 0.794987453
H 5.2593230121 -0.6645523341 0.7184280077
H 1.0335209298 2.7102811414 -0.9746391506
H 0.7895299284 3.0358402561 0.7596017317
H 3.4982522437 2.7124180719 -0.642079768
H 2.7880486042 4.2626575837 -0.1617354191
H 3.2757357964 3.0913082887 1.0766202491
H -0.0246938187 -2.8275482138 -1.5584647204
H -0.150435679 -1.0454018768 -1.7675792664
H -0.4203333014 -1.3654715244 2.393850454
H -0.4128675041 0.123277203 3.3815170837
H -2.9279924497 0.0016025131 3.4916940048
H -2.8775152491 -1.5149154594 2.5813186221
H -2.1575378547 -1.4315113459 4.1956599367
H -5.3970247206 0.6998647129 0.4976831501
H -4.3321615604 1.3965724992 -0.7597048469
H -4.9346395315 -1.590443159 -0.4980345731
H -5.7502841749 -0.4976439812 -1.6314353516
H -4.016410939 -0.8014236086 -1.7893227516
*
