! pbe def2-sv(p) def2/J RI DEFGRID1 loosescf d4 GCP(DFT/SV(P)) printgap
%output
    printlevel normal
end
* xyz 0 1
C 0.6325610047 1.4830305843 -0.1103426364
C 1.5032878638 0.2195480246 0.0983582732
H 2.4403959967 0.3000501295 -0.4655373024
C 0.7517808673 -1.0180318222 -0.4438356401
H 1.234796217 -1.9146761813 -0.0397697528
C -0.7073701366 -0.9855658798 0.0398961279
H -1.2472667716 -1.8456361762 -0.3694956448
C -1.3954129326 0.3261672899 -0.4679671065
H -2.0570099983 0.118098828 -1.3185456543
O -0.4427776918 1.2221698803 -1.0017318247
O -2.1355796342 0.9188889513 0.543285207
O -0.7982866992 -1.0690898516 1.4399908342
O 0.8507400708 -1.1235166475 -1.8377808084
O 1.7649552223 -0.0131135331 1.4665103174
H 1.1936727721 2.2943981503 -0.5725659978
H 0.2320502878 1.8205387085 0.8531750973
H -1.9803781675 0.3974613252 1.3614470819
H 0.0364049783 -0.7520429539 1.8349243473
H 0.4736052391 -0.3255470471 -2.2414483385
H 2.4001207861 0.6340993607 1.8035361174
*
