! pbe def2-sv(p) def2/J RI DEFGRID1 loosescf d4 GCP(DFT/SV(P)) printgap
%output
    printlevel normal
end
* xyz 0 1
C 4.5049739251 -2.1466014939 -0.5500605338
C 4.5950834857 -0.8715514129 -1.3618858167
O 3.2967707677 -0.3220103122 -1.693622204
P 2.2216818361 0.2267369214 -0.6767940409
S 1.013490902 1.4170170585 -1.6619327224
O 3.1537173649 0.8079954395 0.4658062266
C 2.7347284733 1.4387026986 1.6885600718
C 2.3969145469 2.8992241671 1.4696305869
S 1.275106679 -1.459013276 0.22048942
C -0.1461730081 -1.6217514179 -0.9074373836
S -1.7208933395 -1.8238243582 -0.0472030388
P -2.0846476559 0.2179639258 0.4498386651
S -0.7963252437 1.0533425262 1.6624149169
O -3.5844802859 0.2148305397 0.9720721409
C -3.9180387505 -0.0312788498 2.3504087943
C -3.5782833576 -1.4440350604 2.777371384
O -2.1871391075 0.9926818463 -0.9196304217
C -3.3477818995 1.0646393138 -1.7822664455
C -3.745285128 -0.2812631116 -2.3508769268
H 4.0745035626 -1.9462838651 0.4291302076
H 3.8857289104 -2.8799697225 -1.0598537585
H 5.5039478872 -2.551305025 -0.4203945012
H 5.042316744 -1.0503389624 -2.3410924832
H 5.1619520466 -0.1069089242 -0.8283082758
H 1.8772481202 0.9035221035 2.1039490325
H 3.5961294716 1.3253693433 2.3495886452
H 1.5198563069 2.9893838183 0.8314140794
H 2.1755623993 3.3602550691 2.4265609078
H 3.2297546047 3.4145120876 0.9983754894
H -0.0120217753 -2.5231209904 -1.4991045295
H -0.1809331532 -0.7263982736 -1.5358012501
H -3.3844921399 0.6964778667 2.969690397
H -4.9914977205 0.1581941573 2.3935609263
H -3.9574656348 -1.6163663164 3.7794739791
H -4.0195263293 -2.164851822 2.0936930077
H -2.4977119942 -1.5810696728 2.7812471804
H -4.1672162228 1.5051043024 -1.2112924102
H -3.025076631 1.7537308679 -2.5648995014
H -4.0791373385 -0.945928388 -1.5572492515
H -4.5575452077 -0.1353243191 -3.0562946843
H -2.9053432189 -0.7391259268 -2.8677577629
*
