! pbe def2-sv(p) def2/J RI DEFGRID1 loosescf d4 GCP(DFT/SV(P)) printgap
%output
    printlevel normal
end
* xyz 0 1
C 3.7219923806 -1.0651536147 1.8279436116
C 2.8122783566 -1.959576765 1.0026198327
O 2.5453839597 -1.3779970564 -0.2899453711
C 1.5690419303 -0.5231457731 -0.4239994813
O 0.8474415658 -0.1293284941 0.481543213
C 1.3967911152 -0.0390886719 -1.8421160354
C 0.2440880311 0.9526499574 -1.8784876368
H 0.1947618808 1.4531862776 -2.8491791195
C 0.3699661288 2.0122321842 -0.7914098872
O -0.5568962262 2.4322639933 -0.1396611515
O 1.6100765839 2.4557471412 -0.7224048551
C 1.9278919725 3.4784674757 0.2445342209
C 2.6100200451 2.8648832467 1.4557904779
S -1.3978118428 0.1616712032 -1.7589533391
P -1.6931344761 -0.7601632346 0.1296872286
S -0.8599886957 -2.4864991757 0.5894924437
O -1.8355396091 0.3273561865 1.2687582032
C -1.0853255903 0.3830454537 2.4779428156
O -3.2735973 -0.9702956025 -0.0550972048
C -3.8042679941 -1.9499914454 -0.9505788144
H 4.6357220087 -0.8546081844 1.2791978086
H 3.2207063065 -0.1289690126 2.0612420805
H 3.9694384937 -1.5701202506 2.7556409214
H 1.8598658387 -2.1381299253 1.5092816714
H 3.2906964915 -2.9108020817 0.7705239295
H 1.1994530006 -0.8909815857 -2.4943920832
H 2.3231910051 0.4383933614 -2.165385818
H 2.5933799051 4.1644632564 -0.2808467947
H 1.0026770724 3.9876927551 0.5281086017
H 1.9587415598 2.1192438219 1.9092646634
H 3.5410681668 2.3880879107 1.1618529306
H 2.8182897987 3.6406657277 2.1849839169
H -0.5754562572 -0.565123653 2.6581335639
H -1.7991164648 0.5896479051 3.2726455217
H -0.3567294405 1.1883677076 2.3968394795
H -3.7266989662 -1.5999692785 -1.9798373216
H -4.8461904386 -2.072811716 -0.6654093032
H -3.2658785792 -2.8933176331 -0.8352403838
*
