! pbe def2-sv(p) def2/J RI DEFGRID1 loosescf d4 GCP(DFT/SV(P)) printgap
%output
    printlevel normal
end
* xyz 0 1
C 4.0015843718 -4.1518586212 -0.9475225707
C 2.6028410814 -3.6134837155 -0.7224545826
O 2.7019120412 -2.1858322413 -0.5364943009
C 1.609081319 -1.5210845982 -0.2594713548
O 0.5105968765 -2.0335565784 -0.1551210205
C 1.8698397135 -0.0481022302 -0.0536765019
C 0.9976738434 0.8558128131 -0.9463291455
H 1.5428599809 1.1447763666 -1.8458156797
C 0.6117800577 2.0929391021 -0.1480153292
O -0.4946940397 2.2603566041 0.3150985803
O 1.6311820128 2.8972367505 0.0051808237
C 1.443853232 4.1049459821 0.7770671872
C 0.8744118586 5.2167931836 -0.0880953776
S -0.543562007 0.108629393 -1.5866180312
P -1.5869397023 -0.2683130642 0.2005912452
S -0.8655084735 -0.2483349489 2.0328509547
O -2.7734277636 0.7674322486 -0.0723380639
C -3.795152965 1.0048178085 0.8987271054
O -2.4119538294 -1.6116348334 -0.0988923049
C -2.1154810428 -2.9151245778 0.3949839963
H 3.9525430977 -5.2255801898 -1.0940891296
H 4.4409322467 -3.689499983 -1.8259807968
H 4.6270252202 -3.9360751805 -0.086690811
H 2.135558003 -4.0448655348 0.1680597248
H 1.9509308891 -3.8007829698 -1.5810201416
H 2.923401827 0.1603876474 -0.2301126511
H 1.6313125227 0.146173801 0.9976943277
H 0.7780780241 3.8821796446 1.6154344585
H 2.4434139316 4.3486403979 1.1360983212
H 1.5179763559 5.3911440625 -0.9456724199
H -0.1194047179 4.9470066696 -0.4386572277
H 0.8047378457 6.1263515986 0.4992078721
H -4.475523525 0.1539230341 0.9422999549
H -4.3150171407 1.8984898267 0.5633365316
H -3.3466846896 1.1717589984 1.8802521167
H -3.0743640301 -3.4134727161 0.5196362048
H -1.592081086 -2.843634782 1.3499357682
H -1.4916734243 -3.4423142703 -0.323267588
*
