! r2scan-3c def2/J RI DEFGRID2 scfconv6 printgap
%output
    printlevel normal
end
%cpcm
    smd true
    smdsolvent "water"
end
* xyz 0 1
C 5.8195886371 -1.1151760531 0.9462926984
C 4.4602735589 -1.4407395777 0.3610289538
O 3.609487009 -0.2915064375 0.5479452674
P 2.2808894082 -0.0940048456 -0.2989538692
S 2.4811290918 -0.3344867555 -2.2390777778
O 1.7937131629 1.3266113979 0.1962946557
C 2.0847145544 2.5349425929 -0.5341842336
C 3.5555785891 2.8848906555 -0.4600577759
S 0.8975554148 -1.3666427518 0.6592177835
C -0.3248022717 -1.3757836329 -0.6797290693
S -1.09524437 0.2437573185 -0.9742817984
P -2.7220483758 0.0249677534 0.3870687093
S -3.9767417494 1.5222896913 0.4961624043
O -2.0420162353 -0.4425347253 1.7427366405
C -1.8094278116 0.4712298613 2.8292173931
C -0.774415005 1.5240680386 2.4867425651
O -3.3529739133 -1.3850304319 0.0089755164
C -4.4519482124 -1.4945964075 -0.9132301928
C -4.0351232525 -1.1981368147 -2.3404118967
H 6.2637623102 -0.2746375403 0.4207693015
H 5.7178084863 -0.8593483754 1.9968253529
H 6.4662523905 -1.980807408 0.8472436694
H 4.0000889167 -2.2919290078 0.8699955749
H 4.5250693728 -1.6564105271 -0.7109104195
H 1.7661748789 2.3980158152 -1.57268864
H 1.4598798215 3.2893918093 -0.0545738266
H 3.8755649322 2.9418368863 0.5769257482
H 4.1409212417 2.1194547726 -0.9685201758
H 3.7249312729 3.8404214775 -0.9463134306
H -1.0878124279 -2.0994385434 -0.404233617
H 0.1745936285 -1.6484498896 -1.6092525359
H -2.7603214273 0.9459540854 3.0908757598
H -1.4755856037 -0.172522194 3.6439566313
H -0.6136898469 2.1631758582 3.3490613927
H 0.1684832738 1.0621911364 2.2035566413
H -1.1309437852 2.1344229229 1.6562538197
H -4.7897192621 -2.5254000572 -0.7969776676
H -5.2416525933 -0.8068169365 -0.5948517612
H -3.7242649289 -0.157494791 -2.4291999332
H -3.2093144012 -1.8384365897 -2.6404416674
H -4.8786497242 -1.3696703421 -3.0014540657
*
