! r2scan-3c def2/J RI DEFGRID2 scfconv6 printgap
%output
    printlevel normal
end
%cpcm
    smd true
    smdsolvent "water"
end
* xyz 0 1
C 3.6234535575 0.2352484101 -2.6923675212
C 2.1518267368 0.4707838008 -2.428410599
O 1.6117921907 -0.4671416306 -1.478639256
P 2.0907193713 -0.5143545376 0.0333534555
S 2.6124321509 1.1711613797 0.8952419697
O 3.2634943608 -1.5854058076 -0.0720772037
C 4.2383881847 -1.773586109 0.966715926
C 3.62948735 -2.3448227932 2.231338687
S 0.5074114121 -1.6162109295 0.8811988809
C -0.3027885723 -0.3278635875 1.8995805357
S -2.0935461318 -0.2724525658 1.6645054678
P -2.2074613265 0.6877878321 -0.2305185819
S -0.6118411401 1.7333367865 -0.7155927411
O -3.5568448356 1.4990303805 -0.1525658452
C -3.6611574965 2.6773057286 0.6746233994
C -4.8518342283 3.4791366566 0.1896636724
O -2.7208849123 -0.350031834 -1.3037962523
C -1.902965054 -1.374607533 -1.8996823753
C -2.1848115277 -2.720047645 -1.2590621212
H 3.9535545891 0.8934293093 -3.4899441344
H 4.2006221882 0.4515902324 -1.7940357355
H 3.790859998 -0.7995690782 -2.9797161315
H 1.5474753043 0.3121914393 -3.3230135317
H 1.9753532534 1.4828297143 -2.0478344345
H 4.9631832435 -2.4576497445 0.5233818295
H 4.7124345554 -0.8085902596 1.1733246563
H 2.9698125767 -1.6090046736 2.6895644589
H 3.0562900386 -3.2402472055 2.0047061788
H 4.4218274558 -2.589614972 2.9314189578
H 0.1407419437 0.6396795163 1.6510915107
H -0.1529694669 -0.574355094 2.9472612509
H -3.7925695005 2.355433045 1.7113317223
H -2.7317136708 3.2519768975 0.5911400727
H -4.6994823052 3.7871600716 -0.8408994903
H -5.7509847569 2.8728863116 0.2457789272
H -4.9682595303 4.3586098451 0.8143675325
H -2.1834443035 -1.3744719446 -2.955088191
H -0.845459638 -1.1013539265 -1.8121012527
H -1.6249527861 -3.4866936617 -1.7848622883
H -1.8827141756 -2.7213806236 -0.2140134916
H -3.2466480748 -2.9402069233 -1.319901231
*
