! pbe def2-sv(p) def2/J RI DEFGRID1 loosescf d4 GCP(DFT/SV(P)) printgap
%output
    printlevel normal
end
* xyz 0 1
C -0.0023408825 -1.8217267029 0.1640357127
C -7.2009e-05 -0.4444742982 -0.447111907
Cl 1.4500159049 0.4815878973 0.056706574
Cl -1.4489574353 0.4832665502 0.0566369505
H -0.889603343 -2.3572258958 -0.1626275825
H 0.8838752238 -2.3588720914 -0.1625753832
H -0.0023948824 -1.7606864675 1.248852091
H -0.0003549298 -0.456344087 -1.5371846816
*
