! r2scan-3c def2/J RI DEFGRID2 scfconv6 printgap
%output
    printlevel normal
end
%cpcm
    smd true
    smdsolvent "water"
end
* xyz 0 1
C 5.2431191287 -2.409136078 -1.483566959
C 4.2016506371 -1.3163304967 -1.6147374358
O 3.2599225477 -1.4702336599 -0.533149414
P 2.3021047107 -0.2873515183 -0.0871244558
S 3.1776191183 1.4486612756 0.1924607483
O 1.5725261679 -0.9224512304 1.1664524887
C 2.0265014351 -0.678965734 2.5146490735
C 3.3500386002 -1.3618741142 2.7838733741
S 0.7645732598 -0.3332565232 -1.5341046304
C 0.0562152216 1.2867937818 -1.1271668958
S -0.6824728827 1.3404902842 0.524615598
P -2.5665252206 0.4311887764 0.0757090939
S -3.0877325095 0.5268019914 -1.8166702673
O -3.564823495 1.134951684 1.0754890394
C -4.1578981469 2.4149895018 0.7783070459
C -5.5294868811 2.4599559824 1.4218229231
O -2.594021962 -0.9645480179 0.8146413331
C -1.7085532381 -2.0731315593 0.5809882815
C -1.9422467389 -2.7301009648 -0.7651023497
H 5.7830495321 -2.303711115 -0.5469488171
H 4.7616753086 -3.3822863322 -1.5052168208
H 5.9424372325 -2.3347953261 -2.3097719394
H 3.6541075827 -1.3974004496 -2.557501647
H 4.6522985043 -0.3203697014 -1.5467203138
H 2.1067583443 0.4028227631 2.6626019316
H 1.2256796856 -1.0777780606 3.1385439064
H 3.2792960136 -2.421506663 2.5534454012
H 4.1255225763 -0.9164652207 2.1616898974
H 3.6174263122 -1.2329716591 3.8279545599
H -0.7113761765 1.4883234463 -1.8757547234
H 0.8444558659 2.0384917054 -1.1430243182
H -3.5018173956 3.1892691685 1.1843857657
H -4.2264881754 2.5326558324 -0.3092325279
H -5.4413393261 2.2942939607 2.4914888768
H -5.9760567144 3.4323578338 1.2419612051
H -6.1657612659 1.6881295621 0.9977316301
H -0.6720185409 -1.7349383664 0.6760055045
H -1.9411964606 -2.7579278567 1.3990375026
H -1.6662674466 -2.0566699745 -1.5746783574
H -1.333491833 -3.6259058799 -0.8345041816
H -2.9905539899 -2.9960268813 -0.8750715496
*
