! pbe def2-sv(p) def2/J RI DEFGRID1 loosescf d4 GCP(DFT/SV(P)) printgap
%output
    printlevel normal
end
* xyz 0 1
C 4.655527402 -3.4603209934 -1.8714545669
C 3.7628239432 -3.6330979998 -0.6526935974
O 3.4115428294 -2.3563624829 -0.0851698247
C 2.3616850465 -1.7209493947 -0.5679573058
O 1.6406852742 -2.1436619156 -1.4435766545
C 2.1769175777 -0.3806935677 0.1194220499
C 0.7594150723 0.1263981634 -0.0825066006
H 0.4774023951 0.0120624869 -1.1381340162
C 0.5417170207 1.5777422375 0.289620489
O -0.502805325 1.9586003359 0.7825734101
O 1.5524461715 2.3402815735 -0.0148891182
C 1.4499252847 3.7588704156 0.2470842311
C 1.8441937805 4.0731980898 1.6804442829
S -0.4333007235 -0.8641445914 0.8936641915
P -2.2110388232 0.0649126025 0.2151592919
S -2.1947738806 0.9525731435 -1.5410709223
O -3.1946712984 -1.2028909365 0.2317320825
C -3.031064064 -2.2670405052 -0.7073486298
O -2.9410940981 0.7813977837 1.4241696965
C -3.1931874225 2.1849342697 1.5284878288
H 5.5377859221 -2.8825731995 -1.6103950709
H 4.9609498369 -4.436347851 -2.2337619485
H 4.1138847315 -2.9452725324 -2.661578573
H 4.2832710949 -4.1538860375 0.1509875662
H 2.8429157374 -4.1618430604 -0.9175690077
H 2.8784299473 0.3289641134 -0.3250662762
H 2.4139259929 -0.4920654608 1.1770124871
H 2.1389282328 4.2108104014 -0.466016733
H 0.4247027754 4.0773528008 0.0414220679
H 1.8049322543 5.1466607574 1.8324870445
H 1.1567248068 3.5945339931 2.3739693807
H 2.8519979222 3.7202583847 1.8794260957
H -3.0508684862 -1.8740582595 -1.7259155564
H -3.8717301031 -2.9354083273 -0.5411400324
H -2.0878055797 -2.7880980997 -0.5348677733
H -4.2024867113 2.2815256965 1.9227725802
H -3.1202229908 2.6596052163 0.548590852
H -2.465200038 2.6269166975 2.2056305714
*
