! pbe def2-sv(p) def2/J RI DEFGRID1 loosescf d4 GCP(DFT/SV(P)) printgap
%output
    printlevel normal
end
* xyz 0 1
C 2.1982051107 2.4891037257 -0.4678859028
C 2.0745181628 1.1760525269 -1.2140433442
O 2.7532369258 0.0989634491 -0.5524194263
P 2.3533369994 -0.5713628578 0.8362940471
S 2.5767154673 0.4758849249 2.4755646028
O 3.3298999906 -1.8053849698 0.8582349336
C 3.7233175195 -2.6048990704 -0.2839217582
C 2.5542496368 -3.323539607 -0.9233790923
S 0.3901989024 -1.3725777719 0.5705228199
C -0.5270638945 -0.3094408799 1.7072869262
S -1.0082790625 1.2917875297 1.0036823462
P -2.2288694729 0.6055146542 -0.6028647132
S -1.3823975571 -0.0372187881 -2.2560445382
O -3.2471673932 1.8086594298 -0.7928133633
C -2.8870735085 3.2001433372 -0.8560933668
C -1.7852494814 3.4763444974 -1.858436963
O -3.1825306035 -0.4472974379 0.0951849071
C -3.5247375455 -1.7373662572 -0.4521814421
C -2.9872383094 -2.8477446566 0.4284892879
H 1.7932722558 3.2878556532 -1.0814118947
H 1.6516044228 2.452896884 0.4728924688
H 3.2431950014 2.6977534293 -0.2523839542
H 2.5646355207 1.2277718703 -2.1883833347
H 1.0260048666 0.8969560531 -1.3623792764
H 4.223516079 -1.9525480091 -1.001839656
H 4.4402629348 -3.3075100806 0.1436267632
H 2.0201928756 -3.91403343 -0.1830854334
H 1.8616624488 -2.6105651862 -1.3692671167
H 2.9261621818 -3.9805133522 -1.7035890558
H 0.107380123 -0.07332143 2.5643570708
H -1.4195124712 -0.8520727545 2.0074186664
H -3.8183862285 3.6944576727 -1.1380708691
H -2.5861888188 3.5198246644 0.1458313089
H -0.8656486189 2.9837957721 -1.5438556107
H -2.0619779142 3.099658053 -2.8403892172
H -1.6117418805 4.5459072601 -1.9180258692
H -4.6153051099 -1.7542023779 -0.4917739213
H -3.1196036469 -1.8126396018 -1.4669192911
H -1.8985325873 -2.8382884803 0.4275482084
H -3.347924592 -2.7298170543 1.4468233157
H -3.3298152333 -3.8008455465 0.0389653239
*
