! pbe def2-sv(p) def2/J RI DEFGRID1 loosescf d4 GCP(DFT/SV(P)) printgap
%output
    printlevel normal
end
* xyz 0 1
C 5.0269391471 -1.4734253312 -1.2868791986
C 4.2499746876 -0.4160932545 -2.0429502773
O 2.9289116589 -0.2219245789 -1.4979801815
P 2.69922673 0.4095140115 -0.0581449675
S 3.9747705338 1.7806419886 0.512623518
O 2.6602126162 -0.9024506433 0.85026351
C 2.8197405857 -0.8479793469 2.2764878767
C 1.6199122865 -0.2187117751 2.95433526
S 0.6922356784 1.0073375612 -0.3107596526
C -0.0397794821 -0.6333786426 -0.6649125287
S -1.2593099533 -1.1317950685 0.5723831655
P -2.944608671 -0.0699585116 -0.189314414
S -2.7911905505 0.5004052438 -2.0662612571
O -3.2901385865 1.0691629055 0.8543216718
C -2.4978882285 2.2611633375 1.0141063519
C -1.6797716407 2.1853056822 2.2882583218
O -4.1867629266 -0.9762995004 0.1673338772
C -4.6841643905 -1.9824010012 -0.7339954823
C -3.7239970125 -3.1458143708 -0.8836808511
H 5.9692279755 -1.6563953389 -1.7938036884
H 5.2322359188 -1.1280369799 -0.2745292216
H 4.4576946731 -2.3978568055 -1.2366225238
H 4.063395353 -0.7092066089 -3.0770009128
H 4.778010352 0.5423243773 -2.0172755233
H 2.9478474192 -1.8910582782 2.5683259813
H 3.7283883115 -0.2800923206 2.501066976
H 1.747462058 -0.2656147221 4.0309196977
H 1.5369809901 0.8263799077 2.6553599429
H 0.7089993144 -0.7456720263 2.6770317716
H 0.7479679199 -1.3803239487 -0.6661164079
H -0.5312649918 -0.5612805435 -1.6359270759
H -1.854776794 2.3983762946 0.1373657447
H -3.221068442 3.0781017745 1.0581870891
H -1.1486744609 3.1217638697 2.424651058
H -2.333394863 2.0110665549 3.1378387628
H -0.9566131218 1.3765754756 2.2280974508
H -5.6255634199 -2.2943483855 -0.2796276466
H -4.8786210205 -1.5152626312 -1.7049299196
H -2.8273022696 -2.8249699213 -1.4119002495
H -3.4405751328 -3.5285309879 0.0934324368
H -4.2040967926 -3.9340555027 -1.4548614561
*
