! wb97x-v def2-tzvp def2/J RIJCOSX DEFGRID2 scfconv7 GCP(DFT/TZ) printgap
%output
    printlevel normal
end
* xyz 0 1
C -0.7251013140410852 -0.011226233540926632 2.4030671846163993e-06
O 0.7100715589763777 0.0698824267719725 3.959731725774349e-05
H -1.0977858159876541 -0.5269072622658307 -0.8939588193107932
H -1.1055311186026 1.0128354786500375 -0.0001312873350416812
H -1.0978441976931002 -0.526695903468416 0.8940604394352138
H 1.045003835891959 -0.8348810100870082 0.00015382817168258872
*
