  6
         -8.23340576
 C         -0.7249381556       -0.0138210415       -0.0000121736
 O          0.6847608682        0.0650737059       -0.0000022376
 H         -1.0957099520       -0.5250173701       -0.8924947502
 H         -1.0923976361        1.0106129278       -0.0000736292
 H         -1.0959033192       -0.5247381851        0.8926140554
 H          1.0530011250       -0.8291025456        0.0001349044
