! r2scan-3c def2/J RI DEFGRID2 scfconv6 printgap
%output
    printlevel normal
end
* xyz 0 1
C 3.3366413021 -1.6198745274 -2.5688781242
C 2.0736867289 -1.0500240795 -1.9568914117
O 2.3823893987 0.0483815499 -1.066108722
P 2.5332560992 -0.0948220696 0.497570451
S 3.0097137498 1.6053321249 1.3339189847
O 3.5905661305 -1.2719349928 0.6457069645
C 4.3183397404 -1.5104395341 1.8650961451
C 3.4173773502 -1.9595066444 2.9969449023
S 0.7011007214 -0.9709656571 1.1550736545
C -0.2187105882 0.581046368 1.2493297618
S -0.6140861361 1.2722970185 -0.3884445723
P -2.5713384188 0.4338998448 -0.5649604656
S -3.4520799218 0.8080968276 -2.2714129413
O -3.3424303862 0.8746461525 0.7479689683
C -4.1735761639 2.0483656411 0.7665699769
C -3.3537268255 3.3232003977 0.7315975865
O -2.381989386 -1.081080154 -0.1385772944
C -1.8426345331 -2.0509264893 -1.0592178014
C -2.9608362595 -2.8426547444 -1.7074500608
H 3.8944969891 -0.8327089987 -3.0686678193
H 3.9634385019 -2.0599876537 -1.7980973839
H 3.0666214628 -2.3826469303 -3.2925372218
H 1.5250709913 -1.8156841192 -1.4004002181
H 1.4264680568 -0.6076976348 -2.7176721988
H 5.0363321776 -2.2847461991 1.5910962096
H 4.8470065508 -0.5913187517 2.1351448763
H 4.0287553247 -2.2564485058 3.8430292469
H 2.7669900365 -1.141946398 3.303612284
H 2.8029010917 -2.7994855384 2.6826969427
H 0.3972199195 1.3217802932 1.7605451442
H -1.1403103773 0.3799449508 1.7904323551
H -4.8546798115 2.007450911 -0.0894710638
H -4.7388578464 1.9569244984 1.6951076589
H -4.0154916679 4.1785104075 0.8231412496
H -2.633964274 3.3384408794 1.5463645145
H -2.8163557884 3.3937530011 -0.2140487148
H -1.2401779809 -1.5387646598 -1.8172023268
H -1.2005932466 -2.689366106 -0.4483059202
H -2.5346032291 -3.6083353317 -2.3474058715
H -3.5751533475 -3.3098012903 -0.9433870373
H -3.5859148791 -2.1841451087 -2.3068937082
*
