! pbe def2-sv(p) def2/J RI DEFGRID1 loosescf d4 GCP(DFT/SV(P)) printgap
%output
    printlevel normal
end
* xyz 0 1
C 1.1784259692 -2.5492552592 -1.7393485121
C 2.4643542475 -2.6321240619 -0.9417442346
O 2.5043736366 -1.6431170899 0.1012884547
P 2.8078357897 -0.1193968951 -0.2109812003
S 3.9349113885 0.1900461334 -1.7818820611
O 3.3958150372 0.208584463 1.2293339689
C 3.5395474072 1.5282969139 1.780384409
C 4.3192913893 2.4645530843 0.879679674
S 0.9209845379 0.8819950433 -0.2291307979
C 0.1912680134 0.0651670005 1.23196779
S -1.1225294976 -1.0937706679 0.7943547884
P -2.5461256625 0.3991099007 0.2528213424
S -2.591972241 1.9796860456 1.4015709384
O -3.9092069359 -0.4062835814 0.1126486142
C -4.7962260154 -0.6290041463 1.2246305907
C -4.1837729846 -1.524332965 2.2819130726
O -2.2007054902 0.7777210311 -1.2379558249
C -2.0997537314 -0.1761140866 -2.3228223522
C -3.4037236988 -0.2651757829 -3.0880305423
H 1.1226750957 -1.5850274569 -2.2445851284
H 1.1655527135 -3.3379545121 -2.4844032982
H 0.3208135218 -2.6599263992 -1.0800301828
H 3.3325457403 -2.4888371974 -1.5934856947
H 2.5496783979 -3.5807827757 -0.410582443
H 2.5432951673 1.9350584904 1.9819685063
H 4.0621958431 1.3563027811 2.7232023008
H 5.278797581 2.0254383853 0.6166363862
H 3.763739281 2.6540961882 -0.0384281317
H 4.4830119416 3.4062841405 1.3939168903
H -0.2361155983 0.8475151579 1.8607151661
H 0.9592518042 -0.5004907177 1.7544128618
H -5.0638964946 0.3426229808 1.6507030893
H -5.6741704798 -1.0880739994 0.767972081
H -3.807049364 -2.4397012677 1.8324337886
H -3.3617834474 -1.0097159727 2.7768681839
H -4.9386642581 -1.7701087391 3.0219139304
H -1.293848966 0.2125683516 -2.948832367
H -1.8150479248 -1.1502762986 -1.9154920291
H -3.269769386 -0.9262761022 -3.9385289313
H -4.1904026296 -0.6561833348 -2.4484819902
H -3.6954883674 0.71985173 -3.4419022702
*
