! pbe def2-sv(p) def2/J RI DEFGRID1 loosescf d4 GCP(DFT/SV(P)) printgap
%output
    printlevel normal
end
* xyz 0 1
C 4.843563349 -3.0065812476 -0.822006377
C 4.4333940011 -1.544662134 -0.7488773993
O 3.1423489558 -1.3484569633 -1.3605911919
C 2.0647470009 -1.4130392768 -0.6155125534
O 2.0542137844 -1.5967948313 0.5840652714
C 0.8064800207 -1.1597481791 -1.4271148119
C 0.4967386023 0.3457357672 -1.3918111997
H 1.0892442106 0.8913164806 -2.1264451956
C 0.7462149435 0.9049750022 -0.0089817658
O -0.0583044883 0.739929671 0.8907140721
O 1.8620526539 1.5621161343 0.085668364
C 2.2403345913 2.1286430496 1.3646302691
C 3.267556165 1.2417532694 2.0466752533
S -1.259046029 0.6702079567 -1.7672323614
P -2.2668454329 0.3481067356 0.081169981
S -2.6883621993 1.7331417338 1.4181940603
O -3.5778123982 0.0280501391 -0.7992334984
C -4.8742825676 -0.1256272922 -0.2206160533
O -1.9846345314 -1.1278591481 0.6457117079
C -1.3718707807 -1.4311093225 1.8982980639
H 4.8332199639 -3.3474242913 -1.8533755405
H 5.8442980267 -3.118371808 -0.41813391
H 4.1583334658 -3.6185206613 -0.2397461042
H 5.1088856081 -0.9132490576 -1.3260819174
H 4.3844919698 -1.2066644421 0.2895469167
H -0.0155100871 -1.7136438464 -0.9711624343
H 0.9454128555 -1.4767881442 -2.4582604298
H 2.6561167259 3.1064199388 1.1193060804
H 1.3406632695 2.2385255833 1.9754427151
H 3.5067000198 1.6576707925 3.0195640832
H 2.8658700856 0.2388065235 2.1801572601
H 4.1725378616 1.1870120442 1.4480524374
H -5.0282456202 0.6198475286 0.5632171613
H -4.9771541094 -1.1269234887 0.1965823222
H -5.5819071312 0.0263362642 -1.0319808295
H -1.8766226251 -2.3196102024 2.2711443206
H -1.5007145535 -0.598204094 2.5909563124
H -0.3084081512 -1.624650772 1.7537328666
*
