! r2scan-3c def2/J RI DEFGRID2 scfconv6 printgap
%output
    printlevel normal
end
* xyz 0 1
C 2.3995460959 -4.99508e-05 0.0155054729
N 0.9863491105 3.01045e-05 -0.2954013787
C 0.3227114676 1.1915146454 0.2073498258
C -1.1465433524 1.1865142152 -0.2283487637
N -1.856820149 5.72307e-05 0.2175049851
C -1.1466752263 -1.1865292105 -0.2281839719
C 0.3226833104 -1.1915097821 0.2071984697
H 2.857896559 0.8858327928 -0.4203185309
H 2.8579945369 -0.8854001783 -0.4213608521
H 2.5953987275 -0.0006723689 1.1006128088
H 0.3798744899 1.2451711304 1.3135058456
H 0.828297122 2.0680324181 -0.2028832119
H -1.6549783832 2.0697661187 0.1615592235
H -1.1921323887 1.2034187882 -1.3198797248
H -1.8943023113 0.0001360482 1.2344077472
H -1.655052338 -2.069650593 0.162105452
H -1.1925495987 -1.203760605 -1.319695465
H 0.3800934713 -1.24540078 1.3133278055
H 0.828154636 -2.0679704632 -0.2033155243
*
