! pbe def2-sv(p) def2/J RI DEFGRID1 loosescf d4 GCP(DFT/SV(P)) printgap
%output
    printlevel normal
end
* xyz 0 1
C 5.1273319087 0.5032870484 0.3021868923
C 3.9391211211 1.1361112501 -0.3894483073
O 2.9789197672 0.1415547469 -0.8091519328
P 2.081250313 -0.6403873506 0.2314933114
S 1.6065860232 0.3307619393 1.8695100273
O 2.8872035451 -1.9875549744 0.471184217
C 2.6597821216 -2.8557309286 1.600287
C 3.7645142716 -2.682853817 2.6248135051
S 0.5390766674 -1.2974011102 -1.0776467599
C 0.0996614739 0.2993250657 -1.8237469028
S -0.6248393668 1.4764935318 -0.6619392958
P -2.5437737626 0.5460200532 -0.5675052302
S -3.2218102226 -0.1366213947 -2.2692368348
O -3.4100357136 1.6039475182 0.2403100361
C -3.5068587473 3.0092506226 -0.0618800588
C -3.9088620413 3.2734774932 -1.4974580713
O -2.4544606129 -0.6408865738 0.4622031997
C -2.0141272259 -0.5018919523 1.8356268924
C -1.5604485954 -1.8668964188 2.3084634278
H 5.8703473315 1.2663138747 0.5120629789
H 4.8100986627 0.0498165199 1.2396701583
H 5.5642938073 -0.2649484888 -0.3302630335
H 4.2262890748 1.6325261625 -1.3173009374
H 3.4352477776 1.8463848996 0.2741141672
H 1.6871047699 -2.6295559376 2.0453079668
H 2.6488440119 -3.8657726169 1.1872840769
H 4.7342813554 -2.833007688 2.1587899786
H 3.7232962974 -1.6829295167 3.0517290922
H 3.6304894689 -3.4104412422 3.4187565993
H -0.6349059143 0.0728529496 -2.5995902209
H 0.9899303908 0.7611513046 -2.241848757
H -4.2627127367 3.3691794327 0.6383464486
H -2.5417166803 3.4717792987 0.1631146702
H -4.835150577 2.7549960442 -1.733482785
H -4.0455254081 4.340116487 -1.6430308781
H -3.1347133471 2.9177538104 -2.1760047671
H -1.1951705075 0.223462466 1.8795820497
H -2.8551415963 -0.1282924183 2.4216746774
H -0.7630815815 -2.2331771383 1.6640698737
H -1.1913111427 -1.7856068003 3.3258909003
H -2.385521309 -2.57171375 2.2702690382
*
