! pbe def2-sv(p) def2/J RI DEFGRID1 loosescf d4 GCP(DFT/SV(P)) printgap
%output
    printlevel normal
end
* xyz 0 1
C 2.0941771173 -3.7661246269 0.3764805538
C 1.5242271475 -2.6068107436 1.1665027813
O 1.1158784412 -1.5175484371 0.3087044882
P 2.1155883871 -0.5864068942 -0.492950671
S 2.8932475843 -1.2564111139 -2.1627246251
O 3.1798345886 -0.2213119168 0.6415538785
C 4.4706180564 0.3161122189 0.3143550899
C 4.3799226065 1.7566734638 -0.1470661745
S 0.8728288517 1.1074719955 -0.7408957381
C 0.410659778 1.3922411734 0.9961912539
S -0.9044252644 0.3008200343 1.5995320582
P -2.3385685858 0.780447031 0.105165717
S -2.3973842599 2.6445365824 -0.4775575351
O -3.6944316257 0.1907309026 0.6951282195
C -4.5697482958 0.9547870711 1.5464821368
C -3.9349595971 1.2833449078 2.8818768809
O -2.0591869407 -0.2163614496 -1.0886392835
C -2.0930746967 -1.6566866576 -0.9376170923
C -1.3438288969 -2.2642001105 -2.1049575524
H 3.0047466724 -3.4605763713 -0.1365368126
H 2.3241443837 -4.5835902801 1.0524727554
H 1.3792768018 -4.1053338089 -0.3688360273
H 2.250218842 -2.227899412 1.8882990971
H 0.6030337398 -2.883247286 1.6826559751
H 5.0416056028 0.2224154345 1.2391041256
H 4.9175482013 -0.3070725242 -0.4668634755
H 3.8883798255 2.3708330044 0.6030591488
H 5.3791677649 2.1405792602 -0.3254217555
H 3.8110364249 1.8128401316 -1.0749989383
H 0.0624901601 2.4234712179 1.0342656348
H 1.2710902552 1.2349091842 1.6417024034
H -4.8487146264 1.8708716572 1.017274903
H -5.4427851935 0.3107746428 1.6613781124
H -3.5507396638 0.3816133616 3.3517869235
H -3.1148480953 1.9852850626 2.7408986205
H -4.679142706 1.7385717389 3.5274151822
H -1.6271916836 -1.9186719538 0.0171920789
H -3.1399899466 -1.965809723 -0.9271868336
H -1.7829891259 -1.9347547426 -3.0423178881
H -0.2994135334 -1.9565621643 -2.0894075367
H -1.3974000833 -3.3463296974 -2.0416002671
*
