! pbe def2-sv(p) def2/J RI DEFGRID1 loosescf d4 GCP(DFT/SV(P)) printgap
%output
    printlevel normal
end
* xyz 0 1
C 2.5967133666 2.4388843849 -0.1554161303
C 2.8994824657 1.9855080259 1.2566010796
O 2.2549882354 0.72917045 1.5916702899
P 2.5015240516 -0.6628664652 0.905142049
S 1.9348271659 -2.1371255953 2.0639198656
O 4.0442077308 -0.6121280399 0.5415638326
C 4.7117617187 -1.7596563085 -0.0264378517
C 6.2047419834 -1.5235153343 0.0763575926
S 1.5458763563 -0.6910871615 -1.0067828463
C -0.0919658986 -1.101840609 -0.3872517179
S -0.8399926713 0.3028878797 0.5033552824
P -2.7020469596 0.3593376339 -0.4931620045
S -2.7879162035 -0.3791427707 -2.3123039974
O -3.1960299132 1.8605720627 -0.3433039376
C -2.8916723258 2.8676002232 -1.3266694266
C -1.4107609815 3.1818099517 -1.3829363786
O -3.5801602571 -0.3946271565 0.5891471459
C -4.873984732 -0.9543088819 0.280731837
C -5.9005368759 0.1182619213 -0.0172136619
H 1.5224428227 2.4547447375 -0.3222531
H 2.9946536099 3.4386798823 -0.2978855072
H 3.0548029608 1.7678657764 -0.8787692956
H 2.4873969661 2.6734518016 1.9964325887
H 3.9732327951 1.8676789779 1.4110059668
H 4.4048024735 -2.6510809911 0.5301680658
H 4.390894931 -1.859288404 -1.0665963311
H 6.4772514045 -0.6220099043 -0.4642551834
H 6.4947641762 -1.4132036619 1.1174899871
H 6.7283142403 -2.3715049697 -0.3524896918
H -0.0055507626 -1.9453747173 0.2989816157
H -0.7116415251 -1.3463056794 -1.252357648
H -3.2465803834 2.5166712537 -2.3009302487
H -3.4760732134 3.7307109434 -1.0053820832
H -1.245927729 4.0242958235 -2.0469427616
H -1.0421020634 3.4256554915 -0.3893423269
H -0.8626472149 2.3204226103 -1.7644574857
H -4.7623687696 -1.6310239569 -0.5727019876
H -5.1296311102 -1.5242545415 1.1749413921
H -5.9276887956 0.8456320736 0.7898959425
H -5.6454238161 0.6295289181 -0.9444504433
H -6.8783710532 -0.3407030761 -0.1250061508
*
