! pbe def2-sv(p) def2/J RI DEFGRID1 loosescf d4 GCP(DFT/SV(P)) printgap
%output
    printlevel normal
end
* xyz 0 1
C 1.6632383895 -2.766174594 1.3200546817
C 1.7890994541 -1.3732200151 1.9017152211
O 2.8118087318 -0.5900565734 1.2610746242
P 2.7670796178 -0.0604162041 -0.2397619881
S 2.9800213606 -1.3593702025 -1.6859564651
O 3.9479875595 0.9749305995 -0.2575164973
C 4.0616782056 2.0867752835 0.6673589202
C 4.9746409138 1.7338471388 1.8234996848
S 0.989292027 1.1481565335 -0.3300310756
C -0.003805755 0.0817555113 -1.4017728047
S -1.0956597739 -1.0085074481 -0.469488148
P -2.6681692021 0.4144438459 -0.2025821112
S -3.0204050505 1.5560624709 -1.757338188
O -2.3158884873 1.348893069 1.0118246298
C -1.7069854431 1.0164430433 2.2846223148
C -2.228046295 -0.2628328251 2.9025281136
O -3.8717602205 -0.4529332793 0.3561198081
C -4.3395104177 -1.69306308 -0.2049560183
C -4.6918627603 -1.5788130035 -1.6732515589
H 1.2792239539 -2.723100183 0.3023706829
H 2.6328761639 -3.2569181746 1.3035974113
H 0.976441826 -3.3459292408 1.9279319923
H 2.1088055862 -1.4068119094 2.9447238861
H 0.8377874228 -0.8390119709 1.8242123673
H 4.4766931346 2.8976115719 0.0660162761
H 3.0625505167 2.3634848547 1.0143811148
H 5.0883933945 2.6034643941 2.463193022
H 4.556459127 0.9137231241 2.4001380618
H 5.9492262633 1.4350459715 1.447547927
H 0.6668425362 -0.5445947404 -1.9949046909
H -0.6141432715 0.7279092752 -2.0361493665
H -0.6265081853 0.971957499 2.1211534276
H -1.9409112142 1.8839301534 2.9041055641
H -1.97614709 -1.1209540247 2.2822559178
H -1.7728978458 -0.3885290065 3.8803619203
H -3.3078397246 -0.2131255257 3.0145708297
H -3.5655845798 -2.4503264302 -0.0521792649
H -5.2179587326 -1.9317239438 0.3970291412
H -5.1169851375 -2.5162529282 -2.0171392389
H -5.4106012203 -0.7778711203 -1.8305174357
H -3.80102491 -1.3578234265 -2.2598577096
*
