! pbe def2-sv(p) def2/J RI DEFGRID1 loosescf d4 GCP(DFT/SV(P)) printgap
%output
    printlevel normal
end
* xyz 0 1
C 4.2410655542 -1.8159254074 -0.8334023079
C 4.5862378382 -0.3402848422 -0.8234288311
O 3.6406004934 0.4422891981 -0.0773328597
P 2.1164035507 0.6074165144 -0.515490293
S 1.8774111639 0.7497118716 -2.4523401219
O 1.7233557493 1.9283374121 0.2476360768
C 1.4139464762 2.0677754687 1.6530970452
C 2.4892706253 1.4987127979 2.552650661
S 1.133443343 -1.008735054 0.4612340976
C 0.0946473626 -1.6368857439 -0.8973893323
S -1.615080844 -1.9062813451 -0.3905211074
P -2.0631168629 0.0727110013 0.2496954013
S -1.336000036 1.498759206 -0.8880275794
O -1.5572520548 0.226795289 1.7380563654
C -2.1763012527 -0.3443840847 2.9202579754
C -2.0121323467 -1.848177036 2.9905992645
O -3.6397770587 0.067800429 0.4382274613
C -4.558386875 0.3512625854 -0.6322323031
C -4.519687273 -0.6994643401 -1.7225218805
H 5.0536041136 -2.3686813121 -1.2937685006
H 4.0853500132 -2.1775394017 0.1797197791
H 3.3339187961 -1.977485918 -1.414211321
H 4.6251458089 0.0496808182 -1.8454689264
H 5.5339953396 -0.1510957058 -0.31741594
H 1.3092412164 3.1472140017 1.7751577869
H 0.4477619081 1.587641252 1.8348527811
H 3.4518203206 1.9422889041 2.3115481563
H 2.2381709845 1.7180775424 3.5857907448
H 2.5559828575 0.4194045639 2.4239144782
H 0.4691813008 -2.6098499392 -1.2060458887
H 0.1393871853 -0.9175957032 -1.7204986957
H -1.6487480607 0.1526069844 3.7359415612
H -3.2293078194 -0.0590398591 2.9277061951
H -2.6157050206 -2.3370307627 2.2297407474
H -0.969539585 -2.1194387901 2.8410531733
H -2.3332359657 -2.1896059801 3.9697520637
H -5.5296609616 0.3809910455 -0.1360918758
H -4.3176732872 1.3378423905 -1.0400433207
H -3.5710572363 -0.6502862358 -2.255064668
H -4.6331599894 -1.6932866619 -1.2970401204
H -5.3247625617 -0.5132200508 -2.4261835883
*
