! r2scan-3c def2/J RI DEFGRID2 scfconv6 printgap
%output
    printlevel normal
end
* xyz 0 1
C 4.3628981407 -0.1682534063 -2.229589564
C 4.4634697285 0.7360129272 -1.0184621926
O 3.6680411985 0.2668520406 0.0850322501
P 2.0804497695 0.2144602583 0.0391525806
S 1.1992010935 1.7438760049 -0.8026001507
O 1.6934923361 0.0949461158 1.5653753801
C 2.212595677 -0.9276800357 2.4525476489
C 3.3893761458 -0.4009049446 3.2470480589
S 1.6725791357 -1.7033800277 -0.7952401115
C -0.0991155732 -1.4937700835 -1.044882319
S -1.0010476162 -1.3529152228 0.5414454455
P -2.459159453 0.1153349105 0.0494390627
S -2.3149928909 0.9161846288 -1.7393435472
O -2.5010253587 1.0480383109 1.327798427
C -1.4447866454 1.9168051732 1.7659835867
C -1.5211492914 3.2671590407 1.0812197379
O -3.8560228123 -0.5639319864 0.3526120117
C -4.6228590555 -1.2222622536 -0.6689454218
C -3.9553229174 -2.4965152468 -1.1474461183
H 4.5612936525 -1.1999596877 -1.9502866944
H 3.3649273692 -0.1064076276 -2.6608884049
H 5.0856933992 0.1500880006 -2.9740320221
H 4.1408255207 1.7515446068 -1.2678855793
H 5.4772973095 0.7577559809 -0.6160780888
H 1.3695973779 -1.1790805867 3.0991815897
H 2.4928952046 -1.8022825247 1.8593246629
H 3.1022751779 0.4956365078 3.7896214894
H 3.7070493929 -1.161422447 3.9534252033
H 4.2149229439 -0.160311287 2.5827975141
H -0.4326561489 -2.3873371837 -1.566677836
H -0.294231401 -0.5917350631 -1.6332693001
H -1.6057422539 2.0086927071 2.8420226318
H -0.473769193 1.4444128574 1.5847562406
H -2.5104693076 3.6969933571 1.2117383548
H -0.7757645208 3.9288306464 1.5108415587
H -1.3181459214 3.1639075515 0.016443503
H -5.5801129002 -1.4241802416 -0.1866094385
H -4.765001388 -0.5267115049 -1.5023827728
H -3.7033849487 -3.1310467691 -0.3013987037
H -4.6294470796 -3.0289193307 -1.8106881324
H -3.0455008902 -2.2502977966 -1.6940426621
*
