! r2scan-3c def2/J RI DEFGRID2 scfconv6 printgap
%output
    printlevel normal
end
%cpcm
    smd true
    smdsolvent "water"
end
* xyz 0 1
C -0.5835847386 -0.0092752673 -0.4918585545
C 0.5835864671 0.0092076674 0.4918674588
O 1.7838339381 -0.0187385989 -0.2480367182
O -1.7838335521 0.0187988881 0.2480298301
H -0.513921246 -0.9173957536 -1.1036777931
H -0.5023643481 0.8637007424 -1.1516709084
H 0.5024179752 -0.8638230329 1.1516100895
H 0.5138295527 0.9172707318 1.1037640063
H 2.5338452048 -0.0046408955 0.3623761351
H -2.5338338632 0.0047367451 -0.362398297
*
