! pbe def2-sv(p) def2/J RI DEFGRID1 loosescf d4 GCP(DFT/SV(P)) printgap
%output
    printlevel normal
end
* xyz 0 1
C 4.2119919199 0.8900804839 -2.2465242035
C 4.028220133 -0.6082189618 -2.1088651209
O 3.8774553307 -1.0254961457 -0.741670425
P 2.776879372 -0.4845976887 0.2596311137
S 3.1108312081 1.2349668095 1.1537950355
O 2.8361981012 -1.7404464742 1.2201212342
C 2.3824868644 -1.6966210324 2.582989933
C 0.8693031441 -1.7221370584 2.6706974693
S 0.9578430352 -0.62489358 -0.8563584748
C 0.2354571268 0.9968770279 -0.4779713624
S -1.0749447941 0.9246679363 0.7653036447
P -2.6995337397 0.359110904 -0.508710968
S -2.256990466 -0.1348794819 -2.348328563
O -3.6997933915 1.5762439789 -0.5365807891
C -4.1912619009 2.2500338576 0.6496112392
C -3.5666707521 3.627087722 0.7592720375
O -3.5137688647 -0.6773182996 0.385348972
C -2.9603937578 -1.8294437032 1.0454237575
C -2.2532884761 -2.7677333224 0.0894884892
H 5.0332086122 1.2293168382 -1.6193134295
H 4.4257454219 1.1342708574 -3.2822126158
H 3.30603572 1.4121313519 -1.9401628276
H 4.9143135033 -1.1492766386 -2.4454854953
H 3.1547778981 -0.9460526144 -2.6747091181
H 2.8264200653 -2.5844072657 3.0359059527
H 2.7842928873 -0.7968905575 3.0612464543
H 0.4765472411 -2.5524090674 2.0889487266
H 0.5713086551 -1.8347889997 3.7080627876
H 0.4582924475 -0.7890924689 2.2869227056
H -0.1779037466 1.3853256384 -1.4065281181
H 1.014886739 1.6447857977 -0.069440713
H -5.2713545515 2.3135997133 0.5092144937
H -3.9703704141 1.6411355607 1.5288320516
H -3.7356443001 4.1846816021 -0.1578033932
H -4.0206921424 4.1579470414 1.5899024629
H -2.4959567668 3.5491029375 0.9320355556
H -2.2772200261 -1.4831950308 1.8265118712
H -3.8308372457 -2.3060216624 1.4998269779
H -1.3733253172 -2.2868274074 -0.3371702298
H -1.9463275906 -3.662303618 0.6221241476
H -2.9158463777 -3.0460866086 -0.7266232975
*
