! pbe def2-sv(p) def2/J RI DEFGRID1 loosescf d4 GCP(DFT/SV(P)) printgap
%output
    printlevel normal
end
* xyz 0 1
C 0.7340938285 1.5487463967 -0.7775462242
C 1.5231665075 0.2885630804 -0.3827913994
H 1.9843681246 -0.1479991957 -1.2813660337
C 0.5629611597 -0.7592441042 0.2028996297
H 0.3932740316 -0.5316159155 1.2681000927
C -0.7825109441 -0.6691996366 -0.5366843608
H -0.6057998898 -0.7522433969 -1.6141561686
C -1.4197811552 0.6914909532 -0.189280424
H -2.1387341385 0.9854992952 -0.9807734335
O -0.4583527166 1.7110712819 -0.0372016604
O -2.0794952215 0.5362271584 1.0230269496
O -1.622594949 -1.7357616115 -0.1926048782
O 1.1393168313 -2.0347287124 0.0674011627
O 2.5229787924 0.6596522503 0.5343357633
H 0.5059800214 1.5365844296 -1.8492870106
H 1.3352173426 2.426100056 -0.5375446584
H -2.2850678841 1.4085292562 1.3912035094
H -2.0822007209 -1.5081604088 0.6333904984
H 0.4239778361 -2.6911661343 0.0828710472
H 3.0127965136 -0.1304969195 0.8048856598
*
