! pbe def2-sv(p) def2/J RI DEFGRID1 loosescf d4 GCP(DFT/SV(P)) printgap
%output
    printlevel normal
end
* xyz 0 1
C 4.9659944704 1.2275331329 0.0171617659
C 3.6879070924 1.4502950617 -0.7632910528
O 2.9100743521 0.2390854822 -0.8694088371
P 2.1849134306 -0.397334015 0.3858526943
S 1.5824019285 0.8631161211 1.7689110067
O 3.2563507309 -1.4474865079 0.9119582192
C 3.1439401567 -2.0684478412 2.2029227688
C 1.9523146291 -3.0012945835 2.2739989228
S 0.7706569993 -1.6131363475 -0.6249323526
C 0.1481669523 -0.408204579 -1.8337639675
S -0.5564442213 1.0790347949 -1.0916950749
P -2.5561098325 0.3890321468 -0.7521438692
S -3.056183616 -1.1681175319 -1.8276973934
O -3.5009477108 1.5985374184 -1.09825632
C -3.702212831 2.7843774547 -0.2910109926
C -2.4350916638 3.5948704931 -0.1200156783
O -2.7389992673 0.3093651986 0.8276579973
C -1.9784840757 -0.4944555249 1.7413163477
C -2.2227659508 -1.9784002192 1.5576911807
H 4.7303057144 0.9963653548 1.0551651218
H 5.5263746588 0.3991948349 -0.4083750543
H 5.5696571725 2.1290943957 -0.0152447706
H 3.8882180883 1.7252443741 -1.7996656342
H 3.0696539814 2.2184592938 -0.2875161623
H 4.0867043165 -2.6034667319 2.3227118224
H 3.0611071265 -1.2814018419 2.9598935135
H 1.9962027165 -3.7346704126 1.472872539
H 1.9459217809 -3.5105281775 3.2322335031
H 1.0309853617 -2.4281552771 2.1694293878
H -0.6303223331 -0.9289205282 -2.3967292287
H 0.9631996776 -0.0912201407 -2.4782714939
H -4.4589933879 3.3367537325 -0.8501362451
H -4.1038745307 2.4755666339 0.6756398642
H -2.0049536312 3.8370616146 -1.0886967865
H -2.6704145333 4.5144778455 0.4068535253
H -1.6991064586 3.0388878256 0.4595713973
H -0.9172283716 -0.248736454 1.6300558122
H -2.3173066039 -0.1557962757 2.7225168861
H -1.8191740935 -2.3218809335 0.6068462191
H -1.7387656103 -2.5223437818 2.3627580128
H -3.2898649155 -2.1852636706 1.5759788422
*
