! r2scan-3c def2/J RI DEFGRID2 scfconv6 printgap
%output
    printlevel normal
end
%cpcm
    smd true
    smdsolvent "water"
end
* xyz 0 1
C 2.3613456756 -1.3902280444 0.0012182862
C 1.1627199199 -0.6991439534 0.0031353841
C 1.1627383881 0.6991326164 0.0032277034
C 2.3613484805 1.3902507199 0.0016338172
C 3.5627426342 0.6943385552 -0.0001582493
C 3.5627402996 -0.6943204181 -0.0004466613
Cl 5.050851553 -1.5695524085 -0.0029784358
Cl 5.0508703993 1.5695453877 -0.0022296313
O 7.6408e-06 1.4269670796 0.0048134414
C -1.1627260976 0.6991296202 0.0031898735
C -2.3613363197 1.3902337631 0.0013384164
C -3.5627345517 0.6943303097 -0.0004284369
C -3.562784836 -0.694350208 -0.0001802548
C -2.3613500326 -1.3902427231 0.0016440507
C -1.1627394133 -0.6991490734 0.0032833504
O -4.541e-06 -1.4269826596 0.0048541098
Cl -5.0508506987 -1.5695674712 -0.0022308673
Cl -5.0508605053 1.5695871195 -0.0030080036
H 2.3470438992 -2.4667770302 0.001068876
H 2.3470509664 2.4668344284 0.0018245901
H -2.3470171059 2.4667999798 0.0012322967
H -2.3470777858 -2.4668297746 0.0018479295
*
