! r2scan-3c def2/J RI DEFGRID2 scfconv6 printgap
%output
    printlevel normal
end
%cpcm
    smd true
    smdsolvent "water"
end
* xyz 0 1
C 4.4465337639 -1.5359911096 -0.9712596652
C 4.6088561855 -0.0417855058 -0.7814636724
O 3.5480557455 0.5354065404 0.0006242965
P 2.0325535177 0.5822138131 -0.4939565594
S 1.8049685668 0.9270753479 -2.4039919318
O 1.4584718751 1.7109988706 0.4455101179
C 1.6972348407 1.7083146652 1.8767598834
C 0.6895362988 2.6396510011 2.5158023157
S 1.250039435 -1.2548790798 0.2451827624
C 0.0871860469 -1.6873001364 -1.0879265016
S -1.5870006676 -1.9967913609 -0.4872435966
P -2.0264814674 -0.0296001834 0.1932253687
S -1.4467129377 1.4470784249 -0.9549161274
O -1.4192339905 0.0559707875 1.6469081604
C -1.8094217881 -0.8731637655 2.6973561829
C -0.5975105318 -1.1740161833 3.5540999177
O -3.5848483886 -0.0890754317 0.506580089
C -4.5952516852 0.1866473022 -0.4792990058
C -4.6046237579 -0.8340141865 -1.5985965112
H 3.5889662246 -1.7366286056 -1.6117053932
H 5.3380047519 -1.9322600342 -1.4466064363
H 4.297586015 -2.027292574 -0.0131257729
H 4.635820573 0.4668535988 -1.7499467091
H 5.5071081769 0.1970992469 -0.2102741456
H 1.586454721 0.6831863716 2.2433154463
H 2.7228505674 2.0438475127 2.042523341
H 0.7903675627 3.6381805941 2.0997032221
H -0.3191499494 2.2844392507 2.319445843
H 0.862235842 2.6737025236 3.5867093673
H 0.4176495341 -2.6180402049 -1.5419983033
H 0.0818303437 -0.8721233124 -1.8170856906
H -2.6000913654 -0.3863778867 3.2702454398
H -2.2044078217 -1.7814531593 2.233899732
H 0.1773362176 -1.6487251917 2.9567644599
H -0.2044145138 -0.2568990425 3.983300375
H -0.8919924483 -1.8460387509 4.3536877354
H -5.5241830674 0.1669527034 0.0924628522
H -4.4225958871 1.1914899522 -0.8767831063
H -3.7002312365 -0.7377885138 -2.1977385387
H -4.6531643072 -1.8416367914 -1.1934536333
H -5.4656558796 -0.6582043156 -2.2354344635
*
