! pbe def2-sv(p) def2/J RI DEFGRID1 loosescf d4 GCP(DFT/SV(P)) printgap
%output
    printlevel normal
end
* xyz 0 1
C 4.5512433981 1.5032731827 0.1725061584
C 3.4219227299 1.250123574 -0.8053807767
O 2.7660131818 -0.0016622076 -0.5317824736
P 1.7723791838 -0.1813827881 0.7102787793
S 0.9680026324 1.4609986765 1.397553572
O 2.5913794081 -0.8558221831 1.8887584701
C 3.4087532145 -2.040932931 1.7277391174
C 2.7278150166 -3.2419669301 2.3526291272
S 0.6358756506 -1.7997823628 -0.0560544563
C 0.3109570756 -1.2062057602 -1.7432339591
S -0.184399894 0.532762564 -1.8323599075
P -2.1052795011 0.2928460815 -1.0085223428
S -3.2315104593 -1.1065054692 -1.7683288971
O -2.7787445147 1.7171999576 -1.168220119
C -2.2099469864 2.928424403 -0.6028812184
C -3.2523638549 3.6020408147 0.2657979955
O -1.7197868995 0.1248450378 0.5339465556
C -2.6943812097 -0.3033332078 1.5093900175
C -2.5389825617 -1.7805329558 1.8085995024
H 5.0476683486 2.433819078 -0.083525005
H 4.1500788376 1.5827974828 1.1826527865
H 5.271248858 0.6896956891 0.1399819025
H 3.7830749014 1.1450081773 -1.8292084029
H 2.6784711175 2.0518288403 -0.7555736703
H 3.6027850507 -2.2014409251 0.6645631778
H 4.3419437153 -1.8052335827 2.242432851
H 2.4988194013 -3.0379492096 3.3948613705
H 1.8025731007 -3.470031035 1.8275892041
H 3.3916743677 -4.0984845416 2.2920355197
H -0.491741771 -1.8316842545 -2.1368325092
H 1.2156926778 -1.3008162397 -2.3383781074
H -1.3151220898 2.6794534801 -0.0244195234
H -1.932285727 3.5541198962 -1.4528510753
H -2.8546126463 4.5451524457 0.6264228788
H -4.1542662215 3.7854450913 -0.3115851249
H -3.5001348174 2.9725929027 1.1169914428
H -2.4857800345 0.3070466681 2.390701067
H -3.6984393123 -0.0831275261 1.1327948157
H -2.7382620015 -2.3672616073 0.9143698333
H -1.5262166524 -1.9878761638 2.1443840944
H -3.2424601448 -2.0626238474 2.5851961831
*
