! pbe def2-sv(p) def2/J RI DEFGRID1 loosescf d4 GCP(DFT/SV(P)) printgap
%output
    printlevel normal
end
* xyz 0 1
C 2.5180780934 -0.4365186727 -3.0368382092
C 3.1051998967 0.545566621 -2.0418095776
O 2.1558381335 0.8491511537 -0.9889643767
P 2.1196158009 0.1878497474 0.4376636307
S 0.7964123024 1.1364883111 1.5280721446
O 3.6346572248 0.3075097789 0.8960744765
C 4.2526163004 -0.4758718717 1.9356234354
C 3.4912533034 -0.4191876552 3.2429002279
S 1.8986076884 -1.9202193227 0.2070216484
C 0.2219218654 -1.9809302322 -0.4613617541
S -1.0754777989 -1.6211348808 0.776793469
P -2.0565867216 -0.0559131155 -0.2294904717
S -1.1143708357 0.8370448853 -1.7043197818
O -2.6701921694 0.9138181609 0.8665118866
C -2.2548111023 2.2614091282 1.139404223
C -3.4742908501 3.1608933382 1.1097028759
O -3.3348160536 -0.9084088506 -0.6345715855
C -4.4694165811 -0.3353993402 -1.3195279731
C -4.3414365891 -0.509344264 -2.8203718432
H 2.433445854 -1.4289767733 -2.6009734556
H 1.5327413593 -0.0964815649 -3.3490404089
H 3.1664283899 -0.4878658973 -3.9056891853
H 3.2916368064 1.5135163625 -2.5095824281
H 4.0254442576 0.1668417097 -1.5938301374
H 4.3347438447 -1.506572221 1.580237492
H 5.2455307341 -0.033219812 2.0322316515
H 2.5061164607 -0.869290493 3.1240574781
H 4.0393628295 -0.9648192416 4.0040777527
H 3.3594565111 0.6124959652 3.5612684003
H 0.0816600365 -3.0010794927 -0.8082454528
H 0.1249365149 -1.2618091233 -1.2792542695
H -1.7759342525 2.2556703371 2.1210030251
H -1.5144755375 2.5680647036 0.3928959093
H -3.9005104047 3.1854488896 0.1093143835
H -4.2217272965 2.7934583719 1.8070771017
H -3.1778710825 4.1650440984 1.3940551591
H -5.3271194328 -0.8845891521 -0.9269328125
H -4.5587678465 0.7200790696 -1.0479866215
H -4.2170316958 -1.5610798883 -3.0621783733
H -5.2379999193 -0.1321509964 -3.3019539345
H -3.4791170534 0.0395761512 -3.1928021559
*
