! wb97x-v def2-tzvp def2/J RIJCOSX DEFGRID2 scfconv7 GCP(DFT/TZ) printgap
%output
    printlevel normal
end
%cpcm
    smd true
    smdsolvent "water"
end
* xyz 0 1
C 0.6602832191148564 1.6795469576134616 -0.044266040483566776
C 1.407793532812694 0.3705364118972203 -0.28492456282607803
H 1.608492376086528 0.24767641512801586 -1.3595205547569034
C 0.5543996356225378 -0.7871905993660124 0.19194018481373026
H 0.4243423932544004 -0.7102130421288082 1.2835664970336413
C -0.8126082477268842 -0.7192066328417812 -0.4929456167085882
H -0.6689792002878632 -0.8583578574181587 -1.5700443386814051
C -1.4799938139082915 0.6432515713174581 -0.28976123010401794
H -2.3677417660857505 0.7335459731208257 -0.9255554542414047
O -0.612149746370983 1.686346282541759 -0.7198977318213614
O -1.8300975450883814 0.758021704289322 1.0767159555580463
O -1.6592183759177659 -1.7875533840000268 -0.06691610480673432
O 1.217940050455879 -2.0130945616656692 -0.1360676691862184
O 2.6346720350306123 0.3630502735797788 0.45568368101700196
H 1.2248779439150614 2.5201119280820876 -0.45554100125574043
H 0.5264865514317317 1.836182630338057 1.0342606708285924
H -2.4926544151372108 1.4574158845908447 1.1580068451164753
H -1.8698500287469961 -1.6339069866047555 0.8657410683642898
H 0.6282652427356862 -2.73186368793447 0.13122897521507235
H 3.231647083284204 0.9973990305297561 0.037154175259613224
*
