! pbe def2-sv(p) def2/J RI DEFGRID1 loosescf d4 GCP(DFT/SV(P)) printgap
%output
    printlevel normal
end
* xyz 0 1
C 4.5699921837 -3.8505508458 -1.2635581288
C 4.299896164 -2.4578182915 -0.7257352713
O 3.2781421888 -1.8458817419 -1.54005482
C 2.4236971131 -1.0217478122 -0.9814035499
O 2.4244911978 -0.7139688134 0.1937587278
C 1.4267203181 -0.4780775819 -1.9836766637
C 0.31561673 0.2580011192 -1.2478675985
H -0.3129170945 0.8162518097 -1.9498261437
C 0.9194004421 1.2613513939 -0.2780766178
O 1.8134115035 2.0086191393 -0.6057128667
O 0.3062726131 1.2725149342 0.8867666569
C 0.7848224701 2.1602158993 1.9158835604
C 1.6539626707 1.3927016621 2.897293675
S -0.759931135 -0.9368660515 -0.3865102788
P -2.2458959814 0.414542372 0.3064601542
S -2.4070398763 2.1150003734 -0.6514206296
O -3.5628018991 -0.4976121144 0.2308138465
C -4.1235066468 -0.8877100092 -1.0275827523
O -2.1333588417 0.5841815395 1.8727321301
C -2.0151059527 -0.5460041018 2.7586517133
H 3.6759494335 -4.4628074332 -1.1902998985
H 4.871676162 -3.7922010796 -2.3048510689
H 5.3650257351 -4.3088062644 -0.6848429526
H 5.1904887069 -1.8264434899 -0.7905995837
H 3.952126189 -2.4778465465 0.3112591571
H 1.0326677809 -1.291739774 -2.5913131067
H 1.9565199145 0.2236600332 -2.6317325629
H 1.3439396997 2.9666106745 1.4331750479
H -0.1160156629 2.5555420921 2.3890360051
H 2.4721917074 0.9147365713 2.3626070145
H 2.056573958 2.080303391 3.6333014002
H 1.070870922 0.6256719383 3.3986802368
H -3.4798785306 -1.6253870327 -1.5063638852
H -4.2374679539 -0.0153571086 -1.6730372083
H -5.0944685592 -1.3170193269 -0.7944783549
H -1.955684926 -0.1193971606 3.7566074021
H -1.1107155184 -1.1071748428 2.5225645031
H -2.8888937934 -1.1876944166 2.6636830425
*
