! pbe def2-sv(p) def2/J RI DEFGRID1 loosescf d4 GCP(DFT/SV(P)) printgap
%output
    printlevel normal
end
* xyz 0 1
C 3.4053529412 1.435811042 -1.758079429
C 2.1923551 1.9827418814 -1.0375695456
O 2.084184411 1.5465061613 0.3398072489
P 2.1294535834 0.0624704481 0.8752465155
S 1.4784668365 0.0088839455 2.7186192097
O 3.6576191235 -0.3180297917 0.6502094404
C 4.1972888936 -1.6495374679 0.689794855
C 4.1482564223 -2.2595376027 2.0762475608
S 1.0878827559 -1.1193374643 -0.5720384584
C -0.2698943235 -1.7458285582 0.4483034734
S -1.4729547229 -0.4946600522 0.9679492518
P -2.1042140419 0.1749890916 -0.9596007739
S -1.7367178997 -0.9839159536 -2.491756186
O -1.4119187013 1.5777115542 -1.1891613273
C -1.2168608097 2.630105129 -0.2125710219
C -2.4744555879 3.0218911089 0.5322469907
O -3.6220568818 0.5899700447 -0.7409502252
C -4.6414285485 -0.2340691894 -0.1485720547
C -4.7449183983 -1.6025523826 -0.78857912
H 3.482754784 1.9205132711 -2.7267496831
H 4.3065461162 1.6319862146 -1.1832777427
H 3.3054137109 0.362989932 -1.9121135202
H 1.2749504559 1.6944079504 -1.559813524
H 2.2385886195 3.0691811307 -0.9466938564
H 3.6511507633 -2.2684400363 -0.0286696028
H 5.227463206 -1.5192291227 0.353046588
H 4.6386871836 -1.605256974 2.79253923
H 3.1176679302 -2.4019800175 2.3951742693
H 4.65207332 -3.2207144388 2.0632708863
H 0.1211215601 -2.1694940412 1.371535944
H -0.7633301795 -2.497024446 -0.1661191006
H -0.4431135433 2.3058829418 0.4907920828
H -0.8390197915 3.457250457 -0.8159550538
H -3.2759717939 3.2405179584 -0.1682976407
H -2.7893784449 2.2214015649 1.1988214806
H -2.2633706431 3.9060361529 1.1264853175
H -4.4287170366 -0.3234220385 0.9207664615
H -5.555580795 0.343591782 -0.29647917
H -4.8766971345 -1.5096849379 -1.864009211
H -3.837233496 -2.1751857527 -0.603680872
H -5.5912422181 -2.1345993244 -0.3660422888
*
