! pbe def2-sv(p) def2/J RI DEFGRID1 loosescf d4 GCP(DFT/SV(P)) printgap
%output
    printlevel normal
end
* xyz 0 1
C 3.7064472472 -2.1902980461 1.5163555957
C 2.3387624074 -2.112001341 0.8697875842
O 1.9195378666 -0.7422142186 0.7280953481
P 2.4511475784 0.1945747397 -0.453214524
S 3.1808187722 -0.7794225329 -1.9826595634
O 3.5171678996 1.1915469857 0.157953174
C 3.2366720472 2.3193704473 1.0198832842
C 2.5485538901 1.9138407036 2.306146875
S 0.7517910448 1.4025005545 -0.8245910297
C -0.1454337902 0.1448548719 -1.7711888022
S -0.9496208476 -1.0854398616 -0.7254766757
P -2.4517414514 0.2318398507 0.0406423452
S -3.1477167518 1.5002890982 -1.2806956631
O -1.8194470955 0.9757161816 1.2798106623
C -1.7388638096 0.4665420812 2.6339702545
C -0.9032139762 -0.7917096255 2.733594156
O -3.5220291208 -0.7247688604 0.7189185465
C -4.6272075726 -1.2884899503 -0.0109966726
C -4.1773488534 -2.2783525961 -1.0655107109
H 4.4363141183 -1.6823513181 0.8861120242
H 3.693272795 -1.7161788244 2.493855427
H 3.9960858452 -3.2305198196 1.6246883329
H 1.5656660461 -2.5732360445 1.4854403204
H 2.3512411421 -2.5808207955 -0.1189093194
H 4.2251452514 2.7427355106 1.2056960848
H 2.6274737212 3.0342154338 0.4601574514
H 2.4503054472 2.7863155213 2.9446718545
H 1.557356094 1.5201109628 2.0910116979
H 3.1301583423 1.1547751763 2.822401143
H 0.5530938484 -0.3833126946 -2.4217175664
H -0.9045835179 0.6742205871 -2.3484953479
H -1.2892551495 1.295866701 3.1827744066
H -2.7547537714 0.2905410104 2.9925801454
H 0.0833923824 -0.6251501304 2.3089488333
H -0.8009856688 -1.0668691174 3.7787056178
H -1.3843960018 -1.6056668044 2.1946051348
H -5.228449717 -1.7690373773 0.762198424
H -5.1914600533 -0.4701630115 -0.4685600287
H -3.5202520447 -3.0270250396 -0.6303654817
H -5.0478661858 -2.766360387 -1.4919477255
H -3.641740041 -1.7599744378 -1.8593313442
*
