! pbe def2-sv(p) def2/J RI DEFGRID1 loosescf d4 GCP(DFT/SV(P)) printgap
%output
    printlevel normal
end
* xyz 0 1
C 3.5210124305 1.9679365802 -0.8247214436
C 2.9375595013 2.3326343415 0.5235879064
O 1.7295384596 1.5903102448 0.8255576051
P 1.6712393365 0.027032298 1.0441280839
S 0.268930784 -0.5305348805 2.2934522175
O 3.1485103467 -0.2565155654 1.5782831979
C 3.4950139673 -1.4382247264 2.3162974552
C 3.3718391977 -2.700436335 1.4867965403
S 1.6369268538 -0.8700619584 -0.8961040087
C 0.1700407571 -1.9230706458 -0.7753306443
S -1.1710439757 -1.466156957 -1.9269402298
P -2.0484759284 0.1164999464 -0.8717442328
S -3.570793086 1.0399858361 -1.6854726551
O -0.8403685573 1.1029695625 -0.477064337
C -0.5811883943 2.2723196911 -1.2762212241
C -0.0940699855 1.9154828653 -2.6667009422
O -2.3356329842 -0.6355846559 0.4921719598
C -3.1324653661 -0.0394057982 1.5391212354
C -4.5266437834 -0.6309512605 1.5313247758
H 3.8035954154 0.916553434 -0.8395433786
H 2.8006458974 2.1488517834 -1.6174334695
H 4.4042164221 2.5738510677 -1.0020380194
H 2.6085437914 3.37275822 0.554164537
H 3.6591594953 2.1509285286 1.3220298226
H 4.5268486324 -1.2588618339 2.621911616
H 2.8505857477 -1.4957657882 3.1992412803
H 2.3236141212 -2.9040988121 1.2726543057
H 3.9123534074 -2.5947242701 0.5497119226
H 3.7812310047 -3.5353357367 2.0464866961
H -0.2077217855 -1.8928084959 0.249086473
H 0.4553609916 -2.9290845104 -1.0706271529
H -1.5053406638 2.855962064 -1.3359308593
H 0.1670093134 2.8200214038 -0.7030221981
H 0.7729578351 1.2605381571 -2.6176777539
H -0.8864906899 1.402584069 -3.2124906909
H 0.165924694 2.8249606112 -3.1989549766
H -2.5967538169 -0.2688608809 2.4630165169
H -3.1615874631 1.0447185519 1.3971134785
H -4.4714983688 -1.7118785116 1.6229159581
H -5.0906603039 -0.2253254144 2.3649319257
H -5.0326514774 -0.380046485 0.6012209515
*
