! pbe def2-sv(p) def2/J RI DEFGRID1 loosescf d4 GCP(DFT/SV(P)) printgap
%output
    printlevel normal
end
* xyz 0 1
C 3.4571803797 2.3889524307 -1.6003446658
C 4.2450740473 1.7816248727 -0.4573873524
O 3.8731305684 0.4131227122 -0.2254893445
P 2.466545727 0.0094695566 0.3978157016
S 1.9060575993 1.1814935278 1.872414467
O 2.7240537963 -1.5070863422 0.7697165554
C 2.8629894083 -1.9822594429 2.1275347115
C 1.6255790315 -2.7538686986 2.5418569446
S 1.2291065146 -0.2274791108 -1.3063089733
C 0.0216494431 -1.392677456 -0.6124301393
S -1.0108529413 -0.6875056782 0.7004609565
P -2.5907735818 0.0941493308 -0.4993299684
S -2.7483538883 -0.7060379259 -2.287977539
O -2.46871066 1.6726687943 -0.4626832999
C -1.5024305691 2.4001275981 -1.2472815824
C -0.5777377278 3.1769131159 -0.3311733638
O -3.8640207985 0.0145579772 0.4284338434
C -4.7311851374 -1.135790454 0.4354994547
C -4.0569077193 -2.3628417686 1.0158436227
H 3.8190549338 3.3930573438 -1.796439683
H 3.5632577672 1.7831799588 -2.4965946846
H 2.4012668204 2.4363253383 -1.3354167511
H 4.0830348585 2.3461049858 0.4670519837
H 5.3114559174 1.7325592251 -0.6810451958
H 3.7500464437 -2.6171599531 2.1192310529
H 3.0262503046 -1.1278945219 2.7913732557
H 0.7525549968 -2.1026573998 2.5186669808
H 1.4605974525 -3.5948186544 1.8738072473
H 1.7616329326 -3.1247011413 3.5525761874
H 0.5484459261 -2.2443663168 -0.1920686523
H -0.6181470302 -1.6907383669 -1.4465388891
H -0.9452203489 1.707021037 -1.8877177199
H -2.0832025333 3.0757297486 -1.8794059519
H -1.1591263943 3.8271379535 0.3158962619
H 0.0041653736 2.5050097905 0.2967669497
H 0.0974525505 3.7784789635 -0.9315445191
H -5.578468032 -0.8164064166 1.0438806888
H -5.0621019016 -1.3269910235 -0.5903102989
H -3.6285384527 -2.1335187508 1.9883856642
H -4.7898334055 -3.1562176301 1.1224693714
H -3.263635427 -2.702214297 0.3512381432
*
