! pbe def2-sv(p) def2/J RI DEFGRID1 loosescf d4 GCP(DFT/SV(P)) printgap
%output
    printlevel normal
end
* xyz 0 1
C 5.5310089587 -0.0649331832 0.6101152661
C 4.4464933453 -1.0778239884 0.3062410062
O 3.7033388047 -0.7037736858 -0.8810805173
P 2.3539261817 0.1078796826 -0.8600001637
S 1.6746602787 0.3651870649 -2.6739805704
O 2.7636311426 1.4205098922 -0.061917545
C 1.9052175369 2.5662227642 0.0889304913
C 1.2540571234 2.5781234674 1.4578726557
S 1.1045819014 -0.9799785397 0.4870278182
C -0.0101201789 -1.7567766035 -0.7286349297
S -1.6641321803 -1.9953444592 -0.0569684158
P -2.1167687978 0.0539090657 0.3478426003
S -1.4627198554 1.3836375218 -0.9294043834
O -1.5604025588 0.3167138636 1.7984991328
C -1.8851774025 -0.494602056 2.9555541004
C -3.0224177173 0.1229650546 3.7425792831
O -3.6904509577 0.035129021 0.5750976489
C -4.635790713 0.1983942982 -0.4962663346
C -4.5965203288 -0.9499434689 -1.4836226979
H 5.0922861118 0.9008850828 0.844970537
H 6.111992346 -0.4121173456 1.4588422952
H 6.1844981919 0.0486029819 -0.2504679601
H 3.748475512 -1.1777670059 1.1425222378
H 4.8711785425 -2.0526650815 0.0602410441
H 2.5650115689 3.4261139092 -0.0419992513
H 1.1540723964 2.5652792748 -0.7077231671
H 0.5482338384 1.7558738798 1.5547403076
H 2.0101562438 2.4913344725 2.2328513359
H 0.7141634673 3.5116437719 1.5805399217
H 0.3625674503 -2.7460023973 -0.9830673019
H -0.0517006531 -1.1104098068 -1.6104933937
H -2.1357485666 -1.5049173919 2.6210015839
H -0.9611472568 -0.5179202216 3.5361197763
H -3.9314711217 0.1326205644 3.1475704422
H -3.1885121319 -0.4623717735 4.6415015446
H -2.7731546557 1.1435346981 4.019435215
H -5.5985973737 0.2565018833 0.0134808598
H -4.4244674517 1.1464454413 -1.000502511
H -3.6585073876 -0.9355558116 -2.0370512831
H -4.6831820627 -1.9007982664 -0.9637410116
H -5.4170844921 -0.8457841934 -2.1863087449
*
