! pbe def2-sv(p) def2/J RI DEFGRID1 loosescf d4 GCP(DFT/SV(P)) printgap
%output
    printlevel normal
end
* xyz 0 1
C 3.1086986161 1.1540585597 2.9515922458
C 1.7073438558 0.7148641166 2.5849106977
O 1.4967933674 0.770714782 1.1566906839
P 2.2156954461 -0.2416386008 0.1764504501
S 2.6203917585 -2.0093834754 0.9298847843
O 3.4361621879 0.6404890802 -0.3286860391
C 4.3761144955 0.1759807077 -1.3180653092
C 5.5604453953 -0.5116014598 -0.6661786999
S 0.9188093289 -0.2403942793 -1.4975331354
C -0.1542201478 -1.5824345059 -0.9173763624
S -1.1833419413 -1.1022227209 0.4881014665
P -2.3787291671 0.3118072742 -0.5839650839
S -2.7579624487 -0.1251420762 -2.4490650027
O -1.6186536623 1.6862731572 -0.4377667019
C -1.3450860291 2.311205445 0.839629785
C -2.3542561873 3.4041580813 1.1241621726
O -3.6435835007 0.5169515275 0.3568009307
C -4.8218921648 -0.3049579927 0.2598372925
C -4.5556443072 -1.7472680338 0.6380212109
H 3.2097645409 1.1777486815 4.0320188434
H 3.831614337 0.4490308631 2.5426101344
H 3.3126850597 2.1407040139 2.5442970964
H 0.9503904406 1.386500463 2.9912896045
H 1.5185314703 -0.3087459206 2.9238792542
H 3.8647297597 -0.4949143773 -2.014722944
H 4.6831551693 1.0803776892 -1.8467953581
H 5.2347343883 -1.4024637644 -0.1337009842
H 6.2722326394 -0.7993760118 -1.4331440487
H 6.0428186192 0.1616018405 0.0370007226
H 0.4578217921 -2.4226620305 -0.5884571618
H -0.7916092232 -1.8534533666 -1.7588631424
H -1.3602554303 1.5431962441 1.6184487867
H -0.3343567948 2.7123276374 0.7382252502
H -3.3498509724 2.9798661052 1.2226266585
H -2.0842053188 3.9060527071 2.0480385655
H -2.3586183022 4.1249758952 0.3111842726
H -5.5243695214 0.1677385528 0.9477358477
H -5.2012395541 -0.2401809081 -0.7643676241
H -3.9115162875 -2.2150530601 -0.1050671437
H -4.0694609751 -1.8029678572 1.6089119242
H -5.4969461058 -2.2862341454 0.674173955
*
