! pbe def2-sv(p) def2/J RI DEFGRID1 loosescf d4 GCP(DFT/SV(P)) printgap
%output
    printlevel normal
end
* xyz 0 1
C 5.604651095 -0.3353066004 0.5392428292
C 4.4483064914 -1.2415983927 0.1695468972
O 3.6718736527 -0.667331376 -0.9107090425
P 2.3422741206 0.1488815312 -0.696920589
S 1.6641332801 0.7458725455 -2.4297364543
O 2.7885313076 1.2263845627 0.3826256064
C 1.9053714324 2.1630102608 1.0223719168
C 1.6354907524 3.3707564989 0.1483923164
S 1.065350964 -1.144735866 0.4364760975
C 0.0162058756 -1.7179115582 -0.9362100725
S -1.6411833841 -2.1684570197 -0.3828469921
P -2.2276773898 -0.3049711142 0.4216267536
S -1.4768889655 1.3375790685 -0.3584675848
O -1.8594499562 -0.5148122348 1.947779233
C -1.7179892175 0.5782915116 2.874235516
C -3.0651195411 1.1587419746 3.2498122234
O -3.8129013374 -0.4140168688 0.4696520267
C -4.6678700121 -0.7741224527 -0.6299698846
C -4.392024821 0.0321938571 -1.882323765
H 6.2041400265 -0.8183254562 1.30452421
H 6.2214807871 -0.1466468162 -0.3350425665
H 5.2347900735 0.6140321081 0.9167335714
H 3.7895437499 -1.4180980428 1.0247655048
H 4.8023107465 -2.1949456734 -0.2267442309
H 0.970244135 1.6558616877 1.276330796
H 2.4319348856 2.4418337449 1.9370869956
H 1.0683703913 4.1027617755 0.714269548
H 2.5714763852 3.8122258689 -0.182562486
H 1.053725762 3.0815639917 -0.7250438775
H 0.4439562766 -2.6188744886 -1.3697920157
H -0.0388270201 -0.9129406242 -1.6758484994
H -1.2078879063 0.1351475209 3.7302999231
H -1.0840729366 1.3460097528 2.4173016658
H -3.7133488151 0.3792277221 3.6404180771
H -2.9302312709 1.9308030529 4.0007334307
H -3.533466687 1.5945594545 2.3681223165
H -4.5402462552 -1.8431263357 -0.8220629606
H -5.6722310608 -0.5838228259 -0.2472213838
H -5.1173004355 -0.227610049 -2.6467051976
H -4.4568188023 1.0974975152 -1.6723746744
H -3.3919211451 -0.1838126573 -2.257782268
*
