! pbe def2-sv(p) def2/J RI DEFGRID1 loosescf d4 GCP(DFT/SV(P)) printgap
%output
    printlevel normal
end
* xyz 0 1
C 2.8029850675 -2.7896553473 1.2887901199
C 1.5703484301 -2.2605084882 0.5847058956
O 1.4660087368 -0.8351056963 0.745029832
P 2.2712321243 0.2073852601 -0.1663619277
S 3.1691043931 -0.5195065433 -1.7372329457
O 3.2813732428 0.9270223297 0.8127135112
C 2.8703873365 1.5440438304 2.0604999517
C 4.1010907851 2.1639804796 2.6878168709
S 0.7781461233 1.689600054 -0.4870686762
C 0.119092702 0.9771713439 -2.014944645
S -0.5359093677 -0.6991417145 -1.7917807723
P -2.1487577361 -0.1860887273 -0.5114033382
S -2.9922070266 1.5613438143 -0.7940708745
O -1.6558461823 -0.466708935 0.9748328287
C -1.3487901602 0.5376447512 1.9576495695
C -2.0746927081 0.2096459731 3.24766793
O -3.0090690884 -1.47306413 -0.8324044054
C -4.4418716832 -1.5094384056 -0.659778998
C -4.8450258306 -1.3784844012 0.7939880425
H 2.7741328598 -2.5403330301 2.3460878155
H 2.8482692549 -3.8678679341 1.1738129928
H 3.6939797636 -2.3476958937 0.8437760981
H 0.6475872945 -2.651141045 1.0173389504
H 1.6011415602 -2.4957524414 -0.4838987975
H 2.1108865622 2.2982013736 1.8354180076
H 2.4381635056 0.7711543079 2.7003978596
H 4.8502886194 1.4001661807 2.8749075093
H 4.522787934 2.9096490956 2.0202463015
H 3.8237819441 2.6355692743 3.62497224
H 0.9143583115 0.9014100146 -2.7555094736
H -0.6751827612 1.6446702934 -2.3480050442
H -0.2654930815 0.5215500944 2.0997613879
H -1.6459099701 1.5184918373 1.5709548056
H -1.8243328225 -0.7965646697 3.570860755
H -1.7713852726 0.9187886475 4.0109971233
H -3.1499294863 0.2780878163 3.1074421931
H -4.8816212476 -0.7037682999 -1.2556471254
H -4.727336081 -2.4765724507 -1.0757944964
H -5.9165879881 -1.5265591398 0.8851391824
H -4.323860912 -2.1173226174 1.3971097365
H -4.594612234 -0.3815847722 1.1545214799
*
