! pbe def2-sv(p) def2/J RI DEFGRID1 loosescf d4 GCP(DFT/SV(P)) printgap
%output
    printlevel normal
end
* xyz 0 1
C 1.9656340411 -0.1916920281 3.4916137702
C 1.9237324569 0.9585431775 2.5070348399
O 1.1971951602 0.6192649579 1.3059166492
P 1.6446789487 -0.5095411471 0.292905317
S 1.1260318658 -2.3789849509 0.6220470234
O 3.2253946355 -0.298592459 0.3051644685
C 4.1055265082 -1.1801319014 -0.417257982
C 5.5073011053 -0.9937920612 0.1276766117
S 1.116754164 0.2391574317 -1.611837896
C -0.2140894321 -0.901398437 -2.0692527854
S -1.8757927483 -0.1588091446 -2.1367401273
P -2.0370299759 0.6562263186 -0.1853907364
S -3.8333411949 1.1987033616 0.365701676
O -0.9391309388 1.7994615967 -0.0869267431
C -1.2214726348 3.1564689404 -0.4734572949
C -1.3414208475 3.3097686616 -1.977197397
O -1.2988813702 -0.4070527925 0.7420705535
C -2.0644008194 -1.3675818165 1.4959503913
C -2.6576648661 -2.4460697045 0.6121317414
H 0.9566389923 -0.5074235965 3.7473717211
H 2.4928208561 -1.0392663657 3.0546930754
H 2.4828321245 0.1216446213 4.3931460595
H 2.931379519 1.2720593586 2.2265480756
H 1.3662026167 1.8070688962 2.9073866075
H 3.7559886028 -2.2093978556 -0.2818935468
H 4.0516038777 -0.9210713949 -1.4779349932
H 6.1886678759 -1.6344433583 -0.4222782608
H 5.815916867 0.0413122086 0.0130576677
H 5.5407198421 -1.2578277722 1.1810804605
H -0.2019620485 -1.7392467009 -1.367002489
H -0.0268495086 -1.2405573877 -3.0850478069
H -2.1441401233 3.473016262 0.0244742586
H -0.3746407316 3.7204206966 -0.0794317777
H -1.4343807428 4.3632021444 -2.2213019545
H -0.4612454722 2.9016397969 -2.469187749
H -2.2246103619 2.7840422588 -2.3386749742
H -1.3448039796 -1.7867830309 2.2012582399
H -2.8514777861 -0.8323106153 2.0355926569
H -3.3336784373 -2.0007267952 -0.1175787129
H -1.8695940067 -2.9869740151 0.09310134
H -3.2145933771 -3.1429084197 1.230211931
*
