! r2scan-3c def2/J RI DEFGRID2 scfconv6 printgap
%output
    printlevel normal
end
%cpcm
    smd true
    smdsolvent "water"
end
* xyz 0 1
C 1.2628662734 -0.290285732 0.0031684276
C 0.006523242 0.5660711097 -0.0499146804
O -1.1261848807 -0.2799215662 0.0446774602
H 1.290085176 -0.8459701258 0.9364209436
H 1.2588408621 -0.999493388 -0.8200228963
H 2.1433218897 0.340585405 -0.0676663236
H -0.0206542932 1.1256573914 -0.9947548454
H 0.0097885367 1.2831675851 0.7821250889
H -1.9312347079 0.2530587876 0.0117503195
*
