! pbe def2-sv(p) def2/J RI DEFGRID1 loosescf d4 GCP(DFT/SV(P)) printgap
%output
    printlevel normal
end
* xyz 0 1
C 4.480695867 0.9613000975 -1.1684508242
C 4.4204718767 0.8163954118 0.3384651857
O 3.4875614159 -0.1914054255 0.7620705053
P 1.9129354003 -0.0611247238 0.5461246981
S 1.2071498703 1.7407802131 0.8289209782
O 1.3775855034 -1.1298354788 1.5781664227
C 1.8073635978 -2.5118327502 1.5633451302
C 2.8610099663 -2.7572523145 2.6236496169
S 1.619368218 -0.9275017322 -1.3830767904
C 0.3083695854 0.1336347357 -2.0326251969
S -1.3252976142 -0.6828735257 -2.0936685436
P -2.2338818194 0.11938847 -0.3861117362
S -4.1246108063 -0.3078804749 -0.1130993884
O -1.9243129395 1.6860986905 -0.3881081158
C -2.8416859902 2.6387188317 -0.9503987579
C -2.8635721535 2.5733743034 -2.4642990567
O -1.2180221779 -0.3938163889 0.728609679
C -1.5421476872 -0.176881098 2.1221085739
C -2.0836837453 -1.4465389914 2.7438332213
H 5.2979590566 1.6262319512 -1.4289093413
H 4.6388356037 -0.0065670516 -1.637152127
H 3.5500327114 1.3867415244 -1.5399050023
H 4.1359462726 1.764822931 0.8044481931
H 5.3732659166 0.4756109838 0.7462160501
H 0.9010676359 -3.0880012885 1.7617145495
H 2.183176709 -2.7595219362 0.5664088022
H 2.4824929263 -2.4672846474 3.5999710873
H 3.1114388663 -3.8134447737 2.6350901211
H 3.754516963 -2.1784761921 2.4066120121
H 0.5643311219 0.3613495502 -3.0635076832
H 0.242927497 1.0356145522 -1.4194028873
H -3.8383310544 2.4399114348 -0.5426611944
H -2.4751839406 3.60056186 -0.589026415
H -3.233443244 1.6004350808 -2.7874774866
H -3.5250694586 3.344944599 -2.8449068855
H -1.8653450573 2.725350755 -2.8665889031
H -0.6047872123 0.13366906 2.5877976924
H -2.2665094499 0.639333976 2.1954058977
H -2.2734328873 -1.2723729028 3.7980993852
H -3.0129042253 -1.7344006706 2.25609672
H -1.363045048 -2.2518742833 2.6349566406
*
