! pbe def2-sv(p) def2/J RI DEFGRID1 loosescf d4 GCP(DFT/SV(P)) printgap
%output
    printlevel normal
end
* xyz 0 1
C 3.2834056014 2.4880377076 -1.4464067747
C 4.0256721037 1.167671833 -1.4857219631
O 3.8481998413 0.3903009662 -0.289277545
P 2.4567020008 0.0731388035 0.4072336875
S 1.7966686228 1.4693526833 1.6206608775
O 2.8213992444 -1.2886287514 1.1259875019
C 2.7736463687 -1.4931243287 2.5545430381
C 1.5765438863 -2.3369973075 2.9451412102
S 1.2573110952 -0.5576519387 -1.2418918596
C 0.1150821361 -1.6498234861 -0.3536233452
S -1.0255716337 -0.7751944602 0.7441384346
P -2.283111322 0.0168226787 -0.7851917909
S -2.4286240824 -1.0622100066 -2.4107993596
O -1.738504819 1.4573601938 -1.1194705032
C -1.2704919211 2.4709579837 -0.1988432051
C -2.2576259708 2.7814432375 0.9037150015
O -3.6635311346 0.3081351967 -0.0540866371
C -4.7076078332 -0.6764741835 0.0412826861
C -4.3175085529 -1.849078607 0.9179481617
H 3.5278850357 3.0664004113 -2.3316261119
H 2.2078915375 2.3109321676 -1.4266164284
H 3.5593067312 3.0523873757 -0.5585398231
H 5.1054850443 1.3180193379 -1.5379294596
H 3.6944995083 0.5640838794 -2.3359593496
H 3.7118032174 -1.9953776041 2.7952952402
H 2.7383294372 -0.5189068047 3.0523612631
H 1.5938519516 -3.2886469371 2.4205157357
H 1.6139838798 -2.5227226445 4.0137096004
H 0.6502622228 -1.812593083 2.7132042583
H 0.6801004873 -2.3534772597 0.251329278
H -0.4592377882 -2.1600614567 -1.1292262581
H -0.3173795362 2.1431015408 0.2265804224
H -1.1026476551 3.3333705881 -0.845754786
H -2.3760322056 1.919279886 1.5569518661
H -1.8732715008 3.6113586771 1.488891902
H -3.2248516933 3.0466976553 0.484932445
H -5.5481589027 -0.1218706812 0.4606613914
H -4.9534787221 -1.0175278749 -0.9692758697
H -3.5291805455 -2.4269462075 0.4380718128
H -3.9610048478 -1.4993286527 1.883546169
H -5.1818532354 -2.4890576591 1.0632083404
*
