  17
        -28.17226012
 C          3.2948662402        0.8332646433       -0.3923351486
 C          2.1422482859        0.2897543739        0.4430174650
 C          1.3122025302       -0.7229021262       -0.3447084192
 C          0.1313916577       -1.2496368249        0.4650807526
 O         -0.7750760929       -0.2039718909        0.8371891930
 N         -1.6673773729        0.2093489875       -0.0897776906
 O         -1.6717852824       -0.3319522268       -1.1526646793
 O         -2.3746900139        1.0955598221        0.2821233559
 H          3.8773487547        1.5477191893        0.1831719509
 H          3.9518199773        0.0255984114       -0.7056376601
 H          2.9202729652        1.3345644326       -1.2820365674
 H          2.5376137273       -0.1899968046        1.3398870672
 H          1.5034438109        1.1155209445        0.7638029849
 H          0.9465612692       -0.2669170596       -1.2672345056
 H          1.9325744075       -1.5757017756       -0.6193458796
 H         -0.4152849237       -2.0104549763       -0.0983751058
 H          0.4579147022       -1.6496845056        1.4243983879
