! pbe def2-sv(p) def2/J RI DEFGRID1 loosescf d4 GCP(DFT/SV(P)) printgap
%output
    printlevel normal
end
* xyz 0 1
C 4.9713968172 -1.6855525757 -0.4547428846
C 3.6556051486 -1.8482262779 0.27831293
O 2.5392636407 -1.5261649754 -0.5908086501
P 1.8488362301 -0.1113581066 -0.6627576276
S 0.5855556476 -0.0350355557 -2.1559736653
O 3.067967042 0.8992965336 -0.812107251
C 2.9003456899 2.2558402362 -1.2573504688
C 2.1788792267 3.1072590487 -0.2328086486
S 1.2508701027 0.263173276 1.3548616684
C 0.317269885 -1.2589098674 1.7124861576
S -0.8420199258 -1.7701058645 0.4137482234
P -2.1642006757 -0.1031381801 0.376580527
S -1.5523582416 1.7435355155 0.1071315073
O -2.9587774161 -0.3118526425 1.7284975497
C -3.2189118908 0.7364907042 2.6837759376
C -2.1220773575 0.8095744175 3.7279702727
O -3.2589326569 -0.6361298714 -0.6396393936
C -3.05215828 -0.8984195093 -2.0396908655
C -3.1475453859 0.3665456046 -2.869461968
H 5.7797447921 -2.0142430852 0.1910744547
H 4.9691688951 -2.2847850291 -1.3611662149
H 5.1273076949 -0.6444307347 -0.7238790864
H 3.6179695408 -1.2062278642 1.1626172818
H 3.4868304928 -2.8895880154 0.5592526245
H 3.9210337774 2.6039078251 -1.4227319272
H 2.3521463287 2.2448585588 -2.2049166826
H 2.1945526887 4.144257463 -0.5520916273
H 1.1395423136 2.7908338559 -0.1407526751
H 2.6591366056 3.0206114789 0.738721304
H -0.2212793227 -1.0710649694 2.6390684994
H 1.0041706512 -2.0948611058 1.8265916814
H -3.3084255264 1.689200282 2.1539244684
H -4.1783552875 0.4646957916 3.1254084261
H -1.9976141657 -0.1550978009 4.2130786181
H -1.1837782475 1.1097781243 3.2626325349
H -2.3923041442 1.550033947 4.4739120995
H -2.0797166594 -1.3788520479 -2.1831262547
H -3.8483134654 -1.6014104211 -2.2924686291
H -4.074547562 0.8899124489 -2.6510301284
H -2.3083923282 1.0242882932 -2.651747287
H -3.1161406686 0.1039712502 -3.921827951
*
