! pbe def2-sv(p) def2/J RI DEFGRID1 loosescf d4 GCP(DFT/SV(P)) printgap
%output
    printlevel normal
end
* xyz 0 1
C 0.6035008351 1.4402940409 0.0082954614
C 1.5266073496 0.2015483993 0.0778776247
H 2.3955839868 0.3311495321 -0.5752907023
C 0.7434488636 -1.0391905153 -0.410479379
H 1.2161755002 -1.9337693295 0.0073118687
C -0.7042620818 -0.9544896404 0.1110088865
H -1.2581884956 -1.8518541276 -0.200935329
C -1.3855493151 0.2849173178 -0.5225270394
H -1.9016317648 -0.009390035 -1.4474418044
O -0.4441339861 1.2479766908 -0.9341547771
O -2.2847553454 0.7986300821 0.4084527444
O -0.6536415945 -0.8773889283 1.5120160519
O 0.7879871825 -1.1917237759 -1.8052150403
O 2.0466153823 0.0179474998 1.3679594388
H 1.1424424369 2.3252866867 -0.3261898046
H 0.182424552 1.6287724837 1.0021118875
H -2.7514385222 1.5621338372 0.0381921272
H -1.5142184449 -0.5590590774 1.8305591657
H 0.5265111031 -0.3576613314 -2.2248781378
H 1.3203672364 -0.2657673189 1.9495244894
*
