! pbe def2-sv(p) def2/J RI DEFGRID1 loosescf d4 GCP(DFT/SV(P)) printgap
%output
    printlevel normal
end
* xyz 0 1
C 3.0156717949 0.0609404743 -2.2580035026
C 2.1162545771 1.0556710529 -1.5597776941
O 2.2925507028 1.0821349753 -0.1226977529
P 2.3039748531 -0.1276981746 0.8813515631
S 2.179919871 0.487081462 2.7335789756
O 3.6518307264 -0.8864887356 0.52619406
C 4.1370220136 -1.9689552937 1.3461533872
C 5.629289918 -2.0966398996 1.1162260345
S 0.7919407125 -1.5117495493 0.2840395086
C -0.5127761826 -0.8750342646 1.364641772
S -1.0621057408 0.7977351886 0.9288017311
P -2.1810616329 0.3374342556 -0.8102850332
S -1.2933879829 -0.2858459793 -2.433722888
O -2.9726309147 1.6759881028 -1.1108658838
C -3.7835739107 2.3658866445 -0.128727895
C -3.0629943979 3.5980438442 0.3800866506
O -3.2054886989 -0.7043097703 -0.1538422708
C -3.9081933011 -1.6724164214 -0.957724604
C -4.9861721358 -1.0171644893 -1.7965007359
H 2.8949612915 0.1772798037 -3.3308043777
H 4.0537616997 0.2331339862 -1.9862812681
H 2.7378707571 -0.9554855076 -1.985347281
H 1.0652851585 0.8390331916 -1.7741685663
H 2.3419928355 2.0817363086 -1.8539118171
H 3.9122421165 -1.7423884339 2.3940022197
H 3.6069677994 -2.8789694246 1.0530895771
H 5.8289436328 -2.2960633911 0.0674988568
H 6.1296972316 -1.1755255621 1.4017336286
H 6.0131928643 -2.9139292401 1.7177590794
H -0.1257474407 -0.7981634201 2.3815772041
H -1.348557666 -1.5666264675 1.3059678231
H -4.6950686652 2.6366323106 -0.6644728356
H -4.0214627572 1.679054205 0.6871156195
H -3.7164183009 4.1394372237 1.0568549013
H -2.1555238699 3.3173214982 0.9115029509
H -2.794442754 4.2418743187 -0.4528010037
H -3.1834067689 -2.1871665602 -1.596285587
H -4.3267131268 -2.3695971732 -0.2304857967
H -4.5310563915 -0.3185724839 -2.4983096201
H -5.5204002748 -1.7791748068 -2.3551524588
H -5.6858769887 -0.4781874154 -1.1629141521
*
