! pbe def2-sv(p) def2/J RI DEFGRID1 loosescf d4 GCP(DFT/SV(P)) printgap
%output
    printlevel normal
end
* xyz 0 1
C 3.4075540372 -1.089859835 -2.9718103653
C 2.1731817847 -0.5923538625 -2.2501428341
O 2.5452653463 0.263262668 -1.1424138019
P 2.569356477 -0.2331336142 0.3541668773
S 3.2874072629 1.1336019327 1.5517438634
O 3.3830908552 -1.5950542458 0.263284822
C 3.9727417809 -2.2235977554 1.418012796
C 2.9323170286 -2.7034741887 2.4086033983
S 0.5775939947 -0.8454219144 0.758192164
C -0.0062906789 0.8270076032 1.2062846031
S -1.7885005193 0.8754762358 1.3975731699
P -2.3461487501 0.8927217008 -0.673085417
S -0.8738112343 1.2917808684 -1.9035292756
O -3.4978714305 1.9561854675 -0.792680417
C -4.8728939707 1.7538935882 -0.3770729691
C -4.9953203693 1.4829148786 1.1065479372
O -3.1264359586 -0.4609428858 -0.9651799253
C -2.4842520074 -1.7368300986 -1.1469237874
C -2.5155745047 -2.5472469089 0.1339766258
H 4.0099005146 -0.2468596111 -3.2990943598
H 4.0036366929 -1.7134079865 -2.3105539821
H 3.1016970212 -1.669729077 -3.8368012315
H 1.5735497285 -1.4238523832 -1.8688565525
H 1.5529154855 0.03903991 -2.8905691783
H 4.5413798495 -3.0538516324 0.9967526249
H 4.6519859292 -1.50654381 1.8887386372
H 2.1876909609 -3.3185719263 1.9095838652
H 3.4203195221 -3.2846317076 3.1844179337
H 2.4346155504 -1.8514161517 2.8690752489
H 0.2948059215 1.5180334997 0.4155760366
H 0.4315216868 1.1107885526 2.1615359754
H -5.3553315259 2.6911557849 -0.6581300698
H -5.2859778763 0.9308417649 -0.9625653503
H -6.046693958 1.4176760932 1.3689286542
H -4.5070093576 0.5440209967 1.3616224987
H -4.5318971419 2.2816728196 1.6798621354
H -3.0607644997 -2.2226422065 -1.9365453089
H -1.4589594824 -1.5753217001 -1.493874822
H -1.9111239171 -2.0727343738 0.9039059329
H -3.5374572894 -2.6407491832 0.4899846857
H -2.1128219983 -3.5348913522 -0.0640243341
*
