! r2scan-3c def2/J RI DEFGRID2 scfconv6 printgap
%output
    printlevel normal
end
* xyz 0 1
C 5.1260712653 -1.8198205803 0.8696180009
C 4.5867054638 -1.4920863333 -0.5097291735
O 3.1531072659 -1.6412628627 -0.4843399261
C 2.4258740514 -0.9006731054 -1.2890995545
O 2.8721695102 -0.0997914564 -2.0831612847
C 0.9446723252 -1.1846852411 -1.1168523373
C 0.162560172 0.1045613393 -1.3219889766
H 0.4909260877 0.5733694871 -2.2579989406
C 0.3734833999 1.1255155528 -0.220713995
O -0.4626144114 1.9633958552 0.0551649541
O 1.5481521103 1.0128879505 0.3418278541
C 1.8930726507 1.9462344713 1.3857636876
C 2.4308139586 3.2429861389 0.8051838185
S -1.6253042597 -0.1560956739 -1.5250225915
P -2.2614165507 -0.1071739246 0.5029766883
S -0.9773767552 -0.6526218214 1.8755024302
O -2.9724965082 1.2599981357 0.8383853869
C -3.8917451844 1.9072327716 -0.0629155965
O -3.5487142289 -1.0587413912 0.4196908997
C -3.4229919748 -2.4681473719 0.1999024734
H 4.8492037207 -2.8330571563 1.1443128634
H 6.2073715723 -1.7315152629 0.8625979225
H 4.7153702162 -1.1354890151 1.6064121985
H 4.9779311444 -2.1814324663 -1.2634798408
H 4.822590111 -0.4672221782 -0.8113718685
H 0.7739168773 -1.6093076865 -0.1267872453
H 0.6452716025 -1.9096846042 -1.8763580196
H 1.0014641788 2.1238538111 1.9944800875
H 2.6479692875 1.4219040182 1.9716399423
H 1.6504085453 3.7563498525 0.2480856569
H 2.76728455 3.883155154 1.613768636
H 3.2632795173 3.0356140703 0.1378133699
H -3.3445027223 2.2904829281 -0.9238500383
H -4.319722233 2.7246300303 0.5113509886
H -4.6626983887 1.2074150191 -0.3803332034
H -2.6812758475 -2.8880956646 0.8809499699
H -3.1333700143 -2.6569360529 -0.8333871771
H -4.4058029805 -2.8840615574 0.4059671048
*
