! pbe def2-sv(p) def2/J RI DEFGRID1 loosescf d4 GCP(DFT/SV(P)) printgap
%output
    printlevel normal
end
* xyz 0 1
C 5.5533269984 -0.3136925394 -0.8934238761
C 4.396389628 0.6064481251 -1.2243598188
O 3.6392954549 0.9487088238 -0.0381182543
P 2.4017950603 0.1379371476 0.5125083542
S 1.6908416093 1.0022752602 2.1124414554
O 2.9768015374 -1.330891306 0.7024011916
C 2.3820653275 -2.2911296928 1.5937554111
C 0.9865998041 -2.6915195595 1.167166498
S 1.0949101565 -0.0235157459 -1.1659062999
C 0.2438559797 1.5719467604 -0.9196983412
S -1.4832403679 1.5375985318 -1.4460051967
P -2.1949882857 -0.1576026945 -0.3310641952
S -1.8133483845 -1.9553503677 -0.9973582413
O -3.7306063275 0.2103065326 -0.1529463777
C -4.6066624027 0.6341656027 -1.2140349852
C -4.5759649389 -0.2913758658 -2.4116628794
O -1.6202447853 0.0178985194 1.1273988809
C -1.9706867644 1.1175244743 2.0058477087
C -3.0514610188 0.689541244 2.9760210651
H 6.172325924 0.1306502234 -0.1186856263
H 5.1865200497 -1.2744407815 -0.5425060198
H 6.1510288088 -0.4645465048 -1.7870472789
H 3.7218029214 0.1479829618 -1.9534149809
H 4.7495873573 1.5690421122 -1.5984245271
H 3.0693584766 -3.1376094236 1.5602982671
H 2.3664220362 -1.8619810849 2.6003395838
H 0.6303324419 -3.4988900556 1.7986736086
H 0.301782195 -1.848992261 1.2668295676
H 0.974503701 -3.0211306064 0.1304074759
H 0.7163763372 2.3330437345 -1.5369999912
H 0.3073377405 1.8297119581 0.1404849908
H -5.5918452987 0.6458898001 -0.7444072452
H -4.3202319035 1.6488087789 -1.5054216048
H -5.3084247225 0.0389349603 -3.1410964517
H -3.5875228803 -0.2780489837 -2.8697558519
H -4.8001253704 -1.3118650099 -2.1100595294
H -1.041612054 1.3631546568 2.5266935309
H -2.2959143057 1.9691268136 1.4026382488
H -3.2608650498 1.5095240081 3.6556770854
H -3.9572566051 0.4245028906 2.4367742828
H -2.7173708328 -0.1726135226 3.5463771916
*
