  23
        -23.15876180
 C         -3.7946757586        0.3618895992        0.0001697717
 C         -2.5345382801       -0.4955312691        0.0013788991
 C         -1.2667953147        0.3558407453       -0.0011089625
 C          0.0000002136       -0.4966212145       -0.0005201667
 C          1.2667947716        0.3558457931       -0.0005582431
 C          2.5345420636       -0.4955314693       -0.0009220684
 C          3.7946707689        0.3618892598        0.0014147989
 H         -3.8210161642        1.0005209600        0.8802671665
 H         -4.6835763555       -0.2641131494        0.0024932107
 H         -3.8224275616        0.9959985368       -0.8831485567
 H         -2.5348243276       -1.1427338881       -0.8786447917
 H         -2.5339097675       -1.1388581734        0.8842447046
 H         -1.2676175211        0.9999783397       -0.8836983343
 H         -1.2663156909        1.0030706410        0.8792227357
 H         -0.0001682897       -1.1423259795        0.8810588613
 H          0.0001798590       -1.1431428431       -0.8815007786
 H          1.2670916365        1.0012942346        0.8810833468
 H          1.2668333270        1.0017789367       -0.8818435134
 H          2.5336887512       -1.1421523593        0.8795266508
 H          2.5350474406       -1.1394234715       -0.8833673983
 H          4.6835783000       -0.2641259623        0.0012233557
 H          3.8224732489        0.9996027499       -0.8793046503
 H          3.8209814154        0.9969124778        0.8841275074
