! pbe def2-sv(p) def2/J RI DEFGRID1 loosescf d4 GCP(DFT/SV(P)) printgap
%output
    printlevel normal
end
* xyz 0 1
C 2.8687301434 -4.2989492993 0.7570303358
C 2.7459713286 -3.629153638 -0.6021041392
O 2.8977655708 -2.1998824796 -0.4861423708
C 1.8377798056 -1.4729357634 -0.2150365797
O 0.7155211253 -1.9242833629 -0.084713818
C 2.1799210267 -0.0075773015 -0.0835232347
C 0.9415851343 0.8541301501 -0.2600570845
H 0.4290059756 0.6065125568 -1.2015772421
C 1.2560254773 2.3417635732 -0.264902919
O 2.3738527788 2.7888708782 -0.1618827631
O 0.160896551 3.0533917124 -0.4211295072
C 0.2740900517 4.4915781372 -0.4011240738
C 0.235691172 5.0159721305 1.0251353036
S -0.2913138419 0.5536723238 1.0569569847
P -1.6547778731 -0.6711113071 -0.0355437875
S -1.4285178913 -0.792438523 -1.9772833724
O -1.8509188406 -2.0501800754 0.7017122296
C -2.1233492128 -2.1281366981 2.1142961503
O -3.0537752305 0.0252928586 0.3598294945
C -3.3790210339 1.3287658049 -0.1259125338
H 2.0519783571 -3.9864742452 1.4036149847
H 2.8244885843 -5.3755482028 0.6301916388
H 3.813359612 -4.0302901021 1.2216561752
H 1.7733022478 -3.8407700417 -1.0560023612
H 3.5514005999 -3.932801273 -1.2707195148
H 2.9325809011 0.2567974766 -0.8274741497
H 2.6181483866 0.1599132889 0.9037572262
H 1.2086650821 4.7727851349 -0.8940210234
H -0.5821051769 4.8380911215 -0.9796089448
H 0.2507909215 6.1005868425 1.0076189391
H -0.6666153693 4.6767973906 1.5262977518
H 1.1011901881 4.6583607714 1.5778895225
H -2.1080042225 -3.1899874309 2.3459837654
H -3.0998711588 -1.6968020883 2.3272792617
H -1.3500294607 -1.5998256976 2.6722751389
H -3.3239067699 1.3461831214 -1.2156777025
H -2.6886328916 2.0649095553 0.2878526014
H -4.39456671 1.5223041123 0.2089490623
*
