! pbe def2-sv(p) def2/J RI DEFGRID1 loosescf d4 GCP(DFT/SV(P)) printgap
%output
    printlevel normal
end
* xyz 0 1
C 4.1142409438 -2.7489377896 1.1534288185
C 2.7838490082 -2.0303515528 1.2558018706
O 2.4661832042 -1.4914138168 -0.0414951681
C 1.570846745 -0.5452980114 -0.1263962239
O 1.0208568496 -0.0149436708 0.8274684164
C 1.3248458098 -0.1012706789 -1.5506439316
C 0.2989743729 1.0215595159 -1.5615127017
H 0.3323463776 1.5588692481 -2.5135348988
C 0.5435488816 2.026341869 -0.4410654126
O -0.3333532365 2.4998243612 0.2436566806
O 1.814649396 2.3726024152 -0.3938201832
C 2.2093194359 3.3499238738 0.5906698969
C 1.9472160385 4.764241372 0.0993867373
S -1.4341953221 0.4603838696 -1.4864419442
P -1.6487845821 -0.9022751636 0.1282025021
S -0.6299535598 -2.5755324344 0.0948456034
O -1.6358457395 -0.1911397008 1.5359613919
C -2.4928844275 0.9132243006 1.8863017825
O -3.2213200901 -1.1669851905 -0.0364861966
C -3.7418243376 -1.9347378846 -1.1272003393
H 4.3572769065 -3.1873721071 2.1153839166
H 4.0488725989 -3.534141527 0.40686341
H 4.8964085691 -2.0522034545 0.867229945
H 2.8091028704 -1.207547119 1.9774893173
H 1.9738089424 -2.7129097875 1.5335600802
H 0.9914961843 -0.9558431713 -2.1420524047
H 2.2730825708 0.2506168426 -1.9608674084
H 1.6617680009 3.1464718805 1.5155143117
H 3.2745069311 3.1680734184 0.734625056
H 2.3175660858 5.47043847 0.8350560073
H 2.4546522259 4.93135146 -0.8465918115
H 0.8797743197 4.922205372 -0.0354841885
H -2.4490476287 0.9670493676 2.9709170592
H -3.5089822253 0.7236686999 1.5466292848
H -2.0999305774 1.827219392 1.441713863
H -3.7402157007 -1.3338357466 -2.0355654832
H -4.7565213564 -2.1990669041 -0.8404464043
H -3.1400324107 -2.8335355029 -1.2712285837
*
