! pbe def2-sv(p) def2/J RI DEFGRID1 loosescf d4 GCP(DFT/SV(P)) printgap
%output
    printlevel normal
end
* xyz 0 1
C 0.7664872996 -1.4646836289 3.1700563757
C 2.0277817725 -0.87784494 2.5709910445
O 1.663113866 -0.0126063317 1.4654158651
P 2.4428879939 -0.0135110803 0.0919560818
S 3.1998707359 -1.7324679344 -0.4802965826
O 3.5021523617 1.146333029 0.3245796225
C 4.6304139579 1.3663623357 -0.5468509167
C 5.8997389642 1.3629494167 0.2826718357
S 1.0184659728 0.8543312831 -1.2034712941
C 0.1439780263 -0.691346173 -1.5815804825
S -0.9645391336 -1.2016809709 -0.2533132806
P -2.4188109164 0.3313190956 -0.5686140819
S -2.6923989756 0.8341581743 -2.4405627032
O -2.0165737355 1.5752145998 0.3025119915
C -1.4760252256 1.5808191789 1.6469938767
C -2.3551542931 0.8492140156 2.637749945
O -3.7058384457 -0.2357552383 0.1650641814
C -4.4824617341 -1.3052516383 -0.4119206392
C -5.8270328465 -1.330563028 0.2860225052
H 0.1257656415 -0.6734525506 3.5467252713
H 0.2246134779 -2.0316201494 2.4167479963
H 1.0394455323 -2.1253359469 3.9865282134
H 2.6894855671 -1.6651749824 2.1952473546
H 2.5683927554 -0.2605772413 3.2907052597
H 4.6585239817 0.578227821 -1.3056937909
H 4.4679446342 2.3317874394 -1.0300159319
H 6.7444405461 1.5971778242 -0.356909616
H 5.8288373926 2.1043649883 1.0732128657
H 6.0511049466 0.3828833774 0.7285202121
H 0.8701965196 -1.4916127841 -1.7281409427
H -0.4401626908 -0.50828297 -2.4843610754
H -0.4718684108 1.1489473335 1.6134580778
H -1.4071547042 2.6454721639 1.8764335776
H -2.3569462529 -0.21815611 2.4278842914
H -1.973421838 1.0162986435 3.6406591636
H -3.3744814023 1.2215868968 2.5777871692
H -4.5899676697 -1.1189906125 -1.4857002997
H -3.9366159352 -2.2408961739 -0.2643720959
H -6.3405590174 -0.3846972456 0.1392979151
H -6.4283554969 -2.1323145301 -0.1296378892
H -5.6909695296 -1.4970093339 1.3503648626
*
