! r2scan-3c def2/J RI DEFGRID2 scfconv6 printgap
%output
    printlevel normal
end
%cpcm
    smd true
    smdsolvent "water"
end
* xyz 0 1
C 4.9152625941 -3.2549611964 0.3673833592
C 4.4683841179 -1.9249635338 -0.2086410808
O 3.034020424 -1.9462562579 -0.340292201
C 2.474054838 -1.1491333498 -1.2212895694
O 3.079196643 -0.4199581123 -1.979764769
C 0.9612058596 -1.2841719368 -1.2164308339
C 0.3598130373 0.1129771464 -1.3033019615
H 0.7418112325 0.607136525 -2.2052784249
C 0.8082768673 0.961696049 -0.1284944734
O 1.8621987015 0.7753435996 0.4343031527
O -0.0381691284 1.9354948411 0.1432347512
C 0.3140777342 2.8684752561 1.1850185625
C 1.1394335781 4.0123914225 0.62231616
S -1.4439347756 0.1043556654 -1.5080351429
P -2.0920891496 0.0095081845 0.5171115818
S -0.8534706036 -0.7278768958 1.8455361971
O -2.6545752631 1.4259003449 0.9297807863
C -3.6300279448 2.1256384875 0.1287577876
O -3.4598661961 -0.8067181228 0.3693686827
C -3.4646655266 -2.2029000328 0.0495119223
H 4.430365629 -3.4226099114 1.3243888323
H 4.6506091681 -4.0641170635 -0.3069368645
H 5.9910498179 -3.2411407985 0.5065892024
H 4.9035658546 -1.7344948703 -1.1947938852
H 4.72217162 -1.0919513048 0.4540600281
H 0.6576167198 -1.7950044136 -0.3017815492
H 0.6573480913 -1.8673588493 -2.0867762476
H -0.6435535473 3.2114378827 1.5776093672
H 0.8633588149 2.3246817959 1.9591691972
H 0.5992658982 4.5048452422 -0.1814678891
H 1.3395542009 4.7278368958 1.412846001
H 2.0852809573 3.6363946273 0.2380496676
H -3.7845434047 3.0751634787 0.6343134303
H -4.554603575 1.5537416534 0.0884238065
H -3.2400177235 2.2808288229 -0.8769556209
H -2.7654978629 -2.7381547581 0.6937357176
H -3.1936835065 -2.3432867894 -0.9965109161
H -4.4817189469 -2.5407367825 0.2311465931
*
