! pbe def2-sv(p) def2/J RI DEFGRID1 loosescf d4 GCP(DFT/SV(P)) printgap
%output
    printlevel normal
end
* xyz 0 1
C 0.8453991396 1.2670212507 -1.0256897147
C 1.4462467833 0.3066032322 0.0015650774
H 2.4689982235 0.0519699687 -0.3042360635
C 0.6412259626 -1.0049953537 0.0203232123
H 0.6354483146 -1.3782980292 1.0554859823
C -0.8201235553 -0.7762574615 -0.432436918
H -0.8781523577 -0.919209296 -1.5169991041
C -1.2788149695 0.6533131696 -0.0889277677
H -2.3076973524 0.8040667384 -0.4417316508
O -0.4973369627 1.6342397401 -0.7129673691
O -1.3384627001 0.8232602372 1.2976031825
O -1.6911301532 -1.7152260273 0.144790168
O 1.3014432924 -1.9170067543 -0.8232843799
O 1.4318200457 0.8441124263 1.3066986846
H 0.8823605287 0.790110176 -2.0121744229
H 1.3916787715 2.2109204312 -1.0615180417
H -0.4253483067 0.9153432165 1.6416582953
H -1.9341852947 -1.4030205648 1.0317967702
H 0.823814611 -2.7591278081 -0.8158623793
H 2.0038764416 1.6243491407 1.3461456326
*
