! pbe def2-sv(p) def2/J RI DEFGRID1 loosescf d4 GCP(DFT/SV(P)) printgap
%output
    printlevel normal
end
* xyz 0 1
C -7.18434e-05 3.32161e-05 0.5060489714
Cl -1.5895480124 0.5284283343 -0.0722931223
Cl 0.3371067142 -1.6406835059 -0.0722844652
Cl 1.2524650471 1.1122447195 -0.0722850007
H 2.07735e-05 -2.81793e-05 1.5976536759
*
