! pbe def2-sv(p) def2/J RI DEFGRID1 loosescf d4 GCP(DFT/SV(P)) printgap
%output
    printlevel normal
end
* xyz 0 1
C 3.0259387497 -3.61149852 0.9574934027
C 3.0681220864 -2.0955686999 1.0237335598
O 2.6544167434 -1.5653874045 -0.2512100771
C 1.7414963623 -0.6359741468 -0.3037204852
O 1.2353474278 -0.0853788638 0.6628719189
C 1.3858898577 -0.2489478923 -1.7219372752
C 0.4607863725 0.9593362718 -1.6837003158
H 0.4201604086 1.4363033307 -2.6675466271
C 0.9988643178 1.983929399 -0.6906580157
O 2.176969476 2.2667076785 -0.653476203
O 0.0640688302 2.5458743586 0.0400241032
C 0.46549357 3.581652496 0.9600335721
C 0.5643596461 4.9244793824 0.2549298564
S -1.2879590206 0.5505778174 -1.3719568571
P -1.4378336967 -0.8159065653 0.2518283003
S -0.5417859177 -2.5564789582 0.1641808738
O -1.2957182744 -0.0646689794 1.6350791098
C -2.1371104184 1.0513008789 1.9832406097
O -3.0326111192 -0.985834182 0.2058480184
C -3.6797640054 -1.7462729396 -0.8189472946
H 2.0068358814 -3.9450396127 0.7745660955
H 3.6619378836 -3.9645385122 0.1518627193
H 3.3723990867 -4.0207291872 1.9004025416
H 4.0834000971 -1.7302201718 1.1970464598
H 2.3992709492 -1.7062264626 1.7969041906
H 0.9228676376 -1.0999590515 -2.2244027201
H 2.311214893 -0.0004765674 -2.2441871814
H -0.3128928537 3.5880862495 1.722728165
H 1.4248699643 3.2954963969 1.4000656771
H -0.3776871941 5.1613130064 -0.2318188706
H 0.7948342768 5.6929415121 0.9852505071
H 1.355002256 4.8983107153 -0.4913421163
H -1.712029255 1.4468812241 2.9021607312
H -3.1564527396 0.704626276 2.1432723533
H -2.11479536 1.7978908732 1.1895919693
H -4.6823751152 -1.9440933057 -0.4484169923
H -3.1442063635 -2.6825203191 -0.9850618995
H -3.7157958677 -1.1674270617 -1.7407587685
*
