! pbe def2-sv(p) def2/J RI DEFGRID1 loosescf d4 GCP(DFT/SV(P)) printgap
%output
    printlevel normal
end
* xyz 0 1
C 3.8617451267 -3.5659782722 0.2317864691
C 4.0072022059 -2.8603962217 -1.1068021784
O 2.7246668939 -2.4105605523 -1.5911451011
C 2.2793333799 -1.2387043672 -1.1969490856
O 2.8879825118 -0.4725387529 -0.4767533211
C 0.895956281 -0.9518685992 -1.7379155635
C 0.5032447121 0.4820019095 -1.404591933
H 0.9728343259 1.2105573252 -2.0658366855
C 0.8404266235 0.8149401175 0.033759489
O 0.4681411323 0.1100190671 0.954858212
O 1.4507035469 1.9593072683 0.1581374557
C 1.7822852703 2.4074272007 1.4896040349
C 2.1896078379 3.8642246904 1.4047834661
S -1.2974376481 0.7278616268 -1.5755925286
P -2.1110379199 0.1083942894 0.2830824315
S -2.0480523222 1.2552865002 1.8812210888
O -3.6311201682 -0.0775184888 -0.1923746455
C -4.5204243312 1.0292054444 -0.3641626637
O -1.7282668453 -1.4312245982 0.3902072116
C -1.5497327554 -2.0812000797 1.6571406728
H 3.1695301984 -4.3986695527 0.1437269514
H 4.8304581736 -3.9370831765 0.5494858557
H 3.4868344731 -2.8720923755 0.9815738963
H 4.3648261426 -3.5404246413 -1.8796667523
H 4.6699007746 -1.9949653425 -1.0197002736
H 0.2084033899 -1.6530072542 -1.2562696941
H 0.8624519307 -1.1325703013 -2.811455575
H 0.906640161 2.2605999828 2.1307495887
H 2.596399647 1.7744104992 1.8551247085
H 2.4635822386 4.2144883902 2.394170615
H 3.0370557281 3.9725525726 0.7348790108
H 1.3628943103 4.4606566567 1.0304918838
H -4.4029642177 1.7351040311 0.4606302809
H -5.5216027271 0.6056509159 -0.3617830299
H -4.314550644 1.5252246399 -1.3121425587
H -2.4580713472 -2.0093624766 2.2535770719
H -0.7177320748 -1.6186297053 2.1892609535
H -1.3271274584 -3.117731681 1.4174373162
*
