! pbe def2-sv(p) def2/J RI DEFGRID1 loosescf d4 GCP(DFT/SV(P)) printgap
%output
    printlevel normal
end
* xyz 0 1
C 3.4307849987 1.5247974719 -1.588368672
C 3.2378241026 1.8514321098 -0.1215163675
O 2.1148340988 1.1447196147 0.4612433385
P 2.0345937434 -0.3957018911 0.7916702066
S 0.5197784347 -0.6840147714 2.0017556861
O 3.5005417997 -0.6816174574 1.3278327039
C 4.1090115747 -1.9826731258 1.4324625244
C 3.2871234712 -2.9469239814 2.2613802145
S 1.9547957383 -1.5379554764 -1.012806546
C 0.1964035209 -1.3602165761 -1.3315444286
S -0.2502221464 0.3886906541 -1.6402791648
P -2.1533687654 0.446957661 -0.7419233622
S -2.7256274777 -1.1168840708 0.3022794076
O -3.0333754164 0.7133398777 -2.0311192478
C -4.4474018258 0.4375895406 -2.0664023316
C -5.2240760711 1.3931829822 -1.1857350239
O -2.2061304761 1.8846983375 -0.0611246705
C -1.450134647 2.2954367528 1.0890447337
C -2.1210855914 1.8739662638 2.3811559988
H 4.1554248555 2.2149054618 -2.009035452
H 3.7965119795 0.508678381 -1.7139167835
H 2.4879571653 1.6263857784 -2.1219764264
H 2.9669975083 2.8989622977 0.0196952665
H 4.1311768892 1.6164464907 0.4592669188
H 4.2579456364 -2.3718300401 0.4217913913
H 5.0735589485 -1.7769219937 1.9000121087
H 3.0882600739 -2.5290988958 3.2456094637
H 2.3330229981 -3.143004053 1.7738270423
H 3.8268399969 -3.8821164469 2.3695571164
H -0.3792232511 -1.7149064815 -0.4708434203
H -0.016599227 -1.9492154604 -2.2200385408
H -4.7086940217 0.5481585366 -3.1194317684
H -4.6062322131 -0.5974254605 -1.7467577103
H -4.9966373354 2.421319006 -1.4545475363
H -6.2877792283 1.2119578555 -1.303643441
H -4.9496054601 1.2337283437 -0.1434150363
H -0.4374294968 1.8838442861 1.028151236
H -1.406304651 3.3826897421 1.0001763964
H -3.1456109703 2.2348457526 2.4093402057
H -2.12347152 0.7889145696 2.469308115
H -1.5683852162 2.2844494041 3.2200914778
*
