! pbe def2-sv(p) def2/J RI DEFGRID1 loosescf d4 GCP(DFT/SV(P)) printgap
%output
    printlevel normal
end
* xyz 0 1
C 5.6323040977 -0.3701242699 -0.9212752263
C 4.468602852 -1.2267609429 -1.3734035122
O 3.3741330066 -1.1854726213 -0.43475777
P 2.4888906849 0.1120345429 -0.2184874016
S 2.134137159 1.1467834243 -1.8531043818
O 3.274374626 0.883997647 0.925267586
C 3.0290513475 2.266118503 1.2365232188
C 1.666649192 2.4698531647 1.8658245265
S 0.8713351414 -0.8048884054 0.7593105394
C 0.0064356794 -1.3140787673 -0.7723904137
S -1.67215068 -1.8513612311 -0.4329645313
P -2.5679797997 0.04735766 0.0117624227
S -1.487987503 1.6242776571 -0.4038544603
O -3.094757144 -0.1370183822 1.5035152859
C -2.2543570978 -0.3645319003 2.6492713444
C -1.7728160215 0.9426503711 3.2459134862
O -3.9245778968 0.0959423602 -0.7781851187
C -4.9756757684 -0.9017770851 -0.6787491198
C -4.9547529663 -1.8168469289 -1.8867316155
H 5.920934314 -0.6346586174 0.0924959611
H 6.4734025712 -0.5233676293 -1.5901215033
H 5.3490329714 0.6812543655 -0.9440510827
H 4.7350796811 -2.2836300784 -1.415599065
H 4.0993841851 -0.892996082 -2.3486542534
H 3.8349591959 2.5261100237 1.9242151011
H 3.1175804444 2.8519434819 0.3157905111
H 0.8837962226 2.2716409255 1.1325323378
H 1.5394861391 1.7985651136 2.7116459154
H 1.5720197715 3.4975116258 2.2015272077
H 0.5217523531 -2.1655245601 -1.2111138766
H -0.0094256934 -0.4591997321 -1.45317351
H -2.8950448925 -0.907353533 3.3469079307
H -1.4076400541 -0.9953559481 2.3594319633
H -1.1669719203 1.4833208933 2.5228777852
H -2.6200003796 1.5641194323 3.5221041077
H -1.1741249839 0.7347885826 4.1264885716
H -4.8523951651 -1.4607181419 0.2496619168
H -5.8971557688 -0.3187662849 -0.6393794071
H -5.0022338578 -1.22835016 -2.7988216654
H -4.0464427517 -2.4140676668 -1.8988045764
H -5.8142740933 -2.4781538072 -1.843047341
*
