! r2scan-3c def2/J RI DEFGRID2 scfconv6 printgap
%output
    printlevel normal
end
%cpcm
    smd true
    smdsolvent "water"
end
* xyz 0 1
C 5.5552347952 -3.1985651424 -1.9761208652
C 4.8349518365 -2.2066753235 -1.0848858828
O 3.4212566447 -2.3114313255 -1.3555387123
C 2.6134765098 -1.4686945221 -0.7557290256
O 2.9791927964 -0.5953494476 0.0063561453
C 1.1641120141 -1.7246637423 -1.1038367471
C 0.3207895239 -0.5274507119 -0.6879893716
H 0.4771172328 0.3404001593 -1.3332795744
C 0.61994868 -0.1410227315 0.7507227949
O 0.5577217185 -0.9267825907 1.6729388958
O 0.8618435292 1.1440129372 0.8590518472
C 1.1971819233 1.6787358593 2.1540960276
C 0.6408305309 3.0853259465 2.2625276379
S -1.4449944958 -0.9888037195 -0.7522618148
P -2.2150838014 0.8469513558 -0.0064144515
S -1.5563841454 2.4764449001 -0.8555977336
O -3.7884906637 0.6059579417 -0.1267685085
C -4.435839987 0.5954078926 -1.406550041
O -2.0299529247 0.8495010443 1.5660232815
C -2.5131348404 -0.2076464068 2.4220394045
H 5.2056701531 -4.2053624863 -1.7694765463
H 5.3652232277 -2.9682319753 -3.0199263212
H 6.621567283 -3.142410205 -1.7849420025
H 5.1472092431 -1.1761815535 -1.280284472
H 4.9962727952 -2.4188650335 -0.0235482192
H 0.8459425584 -2.606840339 -0.5406817415
H 1.0599302832 -1.9398724124 -2.1661501158
H 0.7842580026 1.0141515218 2.9190078341
H 2.2890623094 1.6697660065 2.2193204057
H 1.0345262899 3.7027157598 1.4602648033
H -0.4434219698 3.0662008012 2.1801952947
H 0.9226164025 3.5092931104 3.220293369
H -5.4998637679 0.6645350613 -1.1953412293
H -4.2038569804 -0.3319351078 -1.9290271877
H -4.106893161 1.4505056413 -1.9985972644
H -2.7019866934 0.262032827 3.3839377353
H -1.7372843212 -0.9687711332 2.514614126
H -3.4267092644 -0.6379352449 2.0185280083
*
