! r2scan-3c def2/J RI DEFGRID2 scfconv6 printgap
%output
    printlevel normal
end
%cpcm
    smd true
    smdsolvent "water"
end
* xyz 0 1
C 4.6586548103 -1.3489783604 -0.7583926839
C 4.6352871181 0.0623794448 -0.2076923981
O 3.4490298244 0.3311192617 0.5576273163
P 2.0024103439 0.4086282207 -0.1006252434
S 1.9667169567 1.2369082679 -1.8814729476
O 1.1898465064 1.112108311 1.0651844351
C 1.0883584734 2.5463838569 1.1777846684
C 2.4346051601 3.2092234416 1.3741960231
S 1.2921853581 -1.5707359929 0.0748318568
C 0.2589044348 -1.6834873917 -1.423238984
S -1.4485219309 -2.1718641021 -1.064863319
P -2.0691155857 -0.4538605701 -0.0381689687
S -1.5194489279 1.2871713615 -0.7720313659
O -1.5979434182 -0.7837742919 1.4322118081
C -1.7832729784 0.1499770127 2.521611505
C -0.7405608964 -0.1519079667 3.5775056344
O -3.6445222168 -0.6219297057 0.0818868113
C -4.5446088777 -0.2653250362 -0.9872190911
C -5.8944398625 0.055469562 -0.3775822713
H 4.4820319871 -2.0686071367 0.0369004071
H 3.8845916608 -1.464170574 -1.5158704336
H 5.6257801265 -1.540300387 -1.2121103188
H 4.6918183293 0.7911295112 -1.0227586924
H 5.4469860247 0.2320120481 0.5009699164
H 0.5903801547 2.9255365425 0.2788770671
H 0.4382303344 2.6929260139 2.041953402
H 3.0409338185 3.0933815352 0.4765556444
H 2.2855163625 4.2678031304 1.5630244081
H 2.9562804604 2.7584623241 2.2145339436
H 0.6598095996 -2.469781671 -2.0576860639
H 0.2745277374 -0.7175432669 -1.9361348348
H -1.681048318 1.1674253637 2.1282521813
H -2.7971253058 0.0124101105 2.9040427552
H 0.256363825 -0.0113592267 3.1673261547
H -0.8823309587 0.5153759237 4.4215719288
H -0.839285409 -1.1816305637 3.9082962414
H -4.1301645857 0.5971032787 -1.5204092301
H -4.6059604866 -1.1156379818 -1.6705294585
H -6.5969379556 0.2848030207 -1.1720206984
H -6.2560695131 -0.7979059191 0.1886350183
H -5.8129303273 0.9116927779 0.2862207738
*
