! pbe def2-sv(p) def2/J RI DEFGRID1 loosescf d4 GCP(DFT/SV(P)) printgap
%output
    printlevel normal
end
* xyz 0 1
C 5.5532014149 -0.9700563244 -0.6373690796
C 4.2277027463 -0.3444342155 -1.0214771242
O 3.2518770717 -0.7326402138 -0.0364618483
P 1.8170327418 -0.0426272498 0.0236395623
S 1.8917105091 1.9200585989 0.0527936122
O 1.1990679184 -0.7908765988 1.2701436222
C 1.2669359413 -0.2565279256 2.6041420717
C 2.6812253519 -0.2727106805 3.1448986805
S 0.8481497835 -0.9386703641 -1.6211123583
C -0.175444085 0.4451208435 -2.205232783
S -1.9716208809 0.2005757198 -2.0318363109
P -2.1667909985 0.0571201391 0.0756855956
S -3.979508641 0.3381070662 0.7600240749
O -1.0613262424 1.0235503842 0.689932667
C -1.429557107 2.3447651024 1.1323295563
C -1.6766350959 3.2858813271 -0.029185717
O -1.4467307004 -1.3022141714 0.4691937307
C -1.7820924687 -2.5821944469 -0.0986014058
C -3.0725607887 -3.1412223284 0.4662131695
H 6.2984512159 -0.7094671549 -1.3816200377
H 5.8735441914 -0.6047246664 0.3341282743
H 5.4519730634 -2.0503655672 -0.5909742104
H 3.8896764827 -0.6976963372 -1.9999200192
H 4.2890635572 0.7490339388 -1.0388134707
H 0.8662994707 0.7617503787 2.5915838195
H 0.6002619695 -0.9016267611 3.1784106264
H 3.0959393596 -1.2750834176 3.0796934145
H 3.3061345166 0.4052875169 2.5645579835
H 2.6747670453 0.0517998011 4.1808502934
H -0.0177853545 0.5428250298 -3.276390575
H 0.1352441206 1.3495438668 -1.6776806834
H -2.3227190026 2.2609532423 1.7592115237
H -0.5805559198 2.6763769604 1.732374565
H -1.9515752508 4.2613404794 0.3588665054
H -0.7779583322 3.3876360178 -0.6332148693
H -2.4912215237 2.9091933491 -0.6472640365
H -1.8424954522 -2.4862265843 -1.1881031664
H -0.9268344004 -3.2098604408 0.1611830348
H -3.0229882408 -3.1799066419 1.5512709329
H -3.9154511548 -2.5149820781 0.1808173419
H -3.2267249006 -4.1423293238 0.0765494837
*
