! pbe def2-sv(p) def2/J RI DEFGRID1 loosescf d4 GCP(DFT/SV(P)) printgap
%output
    printlevel normal
end
* xyz 0 1
C 4.3959860466 -1.679046967 -0.9591690373
C 4.6066710958 -0.2011663838 -0.7017577823
O 3.554913287 0.3793581658 0.0900969582
P 2.0541799738 0.5030499524 -0.4303877713
S 1.8779241747 0.9324354871 -2.3274961881
O 1.4759407299 1.6086268038 0.5341846659
C 1.5717133679 1.5338004157 1.977316703
C 2.7307534866 2.3654284747 2.4857774126
S 1.1975088931 -1.3369062874 0.2171672067
C -0.0077489942 -1.6410302377 -1.1159937974
S -1.6834280538 -1.8928001994 -0.4951093816
P -2.0354301741 0.0813613544 0.210603334
S -1.3958381437 1.5399041199 -0.9339683431
O -1.3954980431 0.1609593923 1.650655607
C -1.3910556301 -0.8849579659 2.6589438222
C -2.7723831661 -1.4163212745 2.9703743033
O -3.5943252468 0.1183174816 0.5113213741
C -4.5675680956 0.4774878162 -0.4833518852
C -4.6571514792 -0.5456672709 -1.5973633686
H 5.2807931741 -2.0852095819 -1.4386491814
H 4.2151671221 -2.2064496591 -0.0259867939
H 3.5424818604 -1.8218900328 -1.6201662937
H 4.6653052244 0.3475145679 -1.6466613474
H 5.5051241856 -0.0199679592 -0.1100774342
H 0.6131821329 1.9203122967 2.3310189257
H 1.6767064434 0.4847883461 2.2703954992
H 2.6313913849 3.390728381 2.1397630506
H 2.7265754084 2.3499534471 3.5711724028
H 3.67187424 1.9616218783 2.1226523776
H 0.2684518842 -2.5629611604 -1.621159832
H 0.0175483533 -0.7901957047 -1.8027918244
H -0.7312495523 -1.6860097039 2.3129123875
H -0.9466009891 -0.3895809795 3.5234978868
H -3.440147107 -0.600891783 3.2353142209
H -3.1801808999 -1.939965107 2.1084868386
H -2.7010610467 -2.1088383731 3.8034670268
H -5.5000100061 0.5435956579 0.0789960796
H -4.304521098 1.4609312666 -0.8858108234
H -3.7435994469 -0.5315917494 -2.1899787071
H -4.7959534419 -1.5426994056 -1.18732199
H -5.4950199005 -0.3002663846 -2.2420514374
*
