! r2scan-3c def2/J RI DEFGRID2 scfconv6 printgap
%output
    printlevel normal
end
%cpcm
    smd true
    smdsolvent "water"
end
* xyz 0 1
C -2.5880530777 0.5861276355 -5.75094e-05
C -1.225669301 -0.045097783 0.0002603138
C -1.1494549726 -1.4350391537 5.68432e-05
C 0.0705726529 -2.0789400563 -0.0001536326
C 1.2383003594 -1.337772699 -7.14172e-05
C 1.1772870747 0.0484867843 6.67327e-05
C -0.0564225907 0.712298106 0.0001017957
C -0.0765294312 2.2145340265 -0.0002515376
O 2.3189734235 0.8013075335 0.0001777829
H -3.1468032869 0.2562770498 0.8743221386
H -2.5389170249 1.6684639152 0.0086175134
H -3.1397742499 0.2702641655 -0.884083633
H -2.0630720953 -2.0110264082 -4.73449e-05
H 0.1189757401 -3.15739205 -0.0003862983
H 2.1981647137 -1.8346935974 -9.26082e-05
H -0.5877657301 2.5923291697 -0.8840764667
H -0.5861836687 2.5928566758 0.8842653212
H 0.9411581519 2.5934642064 -0.0012111175
H 3.0954742264 0.2233127716 0.000447282
*
