! pbe def2-sv(p) def2/J RI DEFGRID1 loosescf d4 GCP(DFT/SV(P)) printgap
%output
    printlevel normal
end
* xyz 0 1
C 2.9284702544 -1.5966212238 1.4285698878
C 1.9967147883 -2.1936884988 0.3891362088
O 1.4374527861 -1.1830843785 -0.4724799622
C 2.1597020105 -0.8139139616 -1.5184101672
O 3.2660673651 -1.242793888 -1.7611390273
C 1.4604853934 0.1694042319 -2.4317389019
C 0.1899287737 0.8107528983 -1.8903150055
H -0.1925600492 1.5076259795 -2.6449365152
C 0.3880518383 1.6079419848 -0.6231091497
O -0.4926670932 1.7167335375 0.2134789273
O 1.5478686119 2.1949239377 -0.566180368
C 1.8446962213 3.0326327485 0.5748714212
C 2.3453025719 2.2062268382 1.7461569089
S -1.1804006398 -0.3807477568 -1.6298075683
P -1.7437714101 -0.30422148 0.4221854753
S -0.5936878711 -0.4888920515 2.0106742753
O -2.961930731 0.7133093928 0.5189750967
C -3.0195938059 1.8380276405 1.3964779468
O -2.7050434588 -1.5974417497 0.316551616
C -2.1850032096 -2.924932646 0.319445058
H 2.3810968301 -0.8967686985 2.0546462176
H 3.3205923766 -2.394283366 2.0504389522
H 3.7561153976 -1.0865597514 0.941486485
H 1.1325232537 -2.6577983599 0.8650814831
H 2.5259021107 -2.9166862109 -0.2380289229
H 1.2210386416 -0.3763207441 -3.3475198337
H 2.182326995 0.9474822386 -2.6885335381
H 2.6132037338 3.7124994312 0.2076506276
H 0.9406681703 3.5827765868 0.8478698127
H 1.57347942 1.5146518218 2.0803382658
H 3.226265498 1.638856758 1.4587712017
H 2.5992934094 2.8673386799 2.5678806763
H -2.305895329 1.7217561889 2.2142368126
H -4.0360392279 1.8699661492 1.7829838864
H -2.7906649024 2.742229918 0.8346030829
H -1.5242797869 -3.0649870297 1.1781226982
H -1.6412850986 -3.1245693151 -0.6050185404
H -3.0497685051 -3.5789828266 0.3993262715
*
