! pbe def2-sv(p) def2/J RI DEFGRID1 loosescf d4 GCP(DFT/SV(P)) printgap
%output
    printlevel normal
end
* xyz 0 1
C 3.2820297136 -2.2564454167 1.2960066058
C 2.8336052813 -2.939953262 0.0148056091
O 2.6501952614 -1.9694374173 -1.0350358055
C 1.4817755817 -1.4055700335 -1.1880515153
O 0.4883058269 -1.6918503519 -0.535038254
C 1.4655408172 -0.3735529196 -2.2890970306
C 0.6209076255 0.8201210657 -1.8589541856
H 0.6034356803 1.5826276849 -2.6424400396
C 1.1605340262 1.4498528452 -0.5844050053
O 2.2301759351 1.1454101423 -0.1074440258
O 0.3549159789 2.3764696319 -0.1167132231
C 0.7700968919 3.1074717 1.0552381725
C -0.3090443003 4.1225215668 1.3710000407
S -1.1484628008 0.4049210799 -1.6464193034
P -1.3146918378 -0.2660846604 0.3550359887
S -0.0801117379 -0.2063637682 1.8777426236
O -2.5394307203 0.7757265818 0.6118668122
C -3.2075103231 0.8269742876 1.8720170499
O -2.0437905358 -1.686268456 0.3246621671
C -3.0166118716 -2.0174044042 -0.6796634086
H 2.5041447678 -1.5859344378 1.6590019559
H 3.4813300954 -3.0051494819 2.0552716427
H 4.180190804 -1.6730116467 1.1144308937
H 1.892064083 -3.4745883528 0.1694081524
H 3.6011583641 -3.6129155042 -0.3678186296
H 1.0293509374 -0.8202272467 -3.1840881704
H 2.4905002056 -0.0635397115 -2.491033519
H 0.9110147839 2.3903902392 1.8711249367
H 1.7325034014 3.5784541367 0.835000336
H -0.4317133445 4.8094217006 0.5391057474
H -1.2517493537 3.611845385 1.5469264505
H -0.0292135023 4.6752820166 2.2611584528
H -3.7358538945 -0.1081067423 2.0632372057
H -3.9078238315 1.6552338245 1.7989947044
H -2.4857746654 1.0010270439 2.6726586934
H -3.6282693364 -1.1479019642 -0.9249049487
H -3.6245210581 -2.8079851896 -0.2459814947
H -2.5052859099 -2.3741016203 -1.5727514078
*
