! pbe def2-sv(p) def2/J RI DEFGRID1 loosescf d4 GCP(DFT/SV(P)) printgap
%output
    printlevel normal
end
* xyz 0 1
C 3.3988961119 1.81690312 -2.1348653408
C 2.1676085386 0.9650952425 -1.9110480323
O 1.6344283598 1.1872208746 -0.582270008
P 1.8931246902 0.2086073756 0.628202388
S 1.3021089947 1.0200709552 2.3058861172
O 3.4523852737 -0.063846214 0.4639267721
C 4.1827697635 -1.1444145247 1.0734322772
C 4.023060227 -1.1908414869 2.5784715154
S 1.0606318391 -1.6993628319 0.1389892211
C -0.2851723166 -1.7658077332 1.3478764119
S -1.9425864169 -1.7816635405 0.6088251611
P -1.8932172621 -0.0566861968 -0.6034127947
S -1.097422899 -0.1325299962 -2.399470176
O -1.2240498959 0.9657794747 0.4074601516
C -1.225970256 2.3847587168 0.1314177811
C -2.3214817883 3.0712505966 0.9184542592
O -3.4083304988 0.4237705239 -0.6420878765
C -4.3230636911 -0.0399256276 -1.6499944492
C -4.6536613983 -1.5068926729 -1.4707403489
H 4.1856944456 1.5303356381 -1.4420689997
H 3.74477601 1.6747718125 -3.1537993374
H 3.1582576909 2.864890321 -1.9792826299
H 2.3849237185 -0.0988983204 -2.0365969085
H 1.3572825173 1.2417144592 -2.5888815127
H 3.8496478289 -2.0816697655 0.6189937689
H 5.2174387228 -0.9436053734 0.7899530275
H 4.2834060238 -0.2308608964 3.0178885897
H 2.9918209199 -1.4198582759 2.8427932431
H 4.6719008111 -1.9603015374 2.9841468897
H -0.1874830792 -0.9124880429 2.0257471901
H -0.2083657682 -2.7095005627 1.8832450501
H -0.237112651 2.7327555606 0.4390620667
H -1.3415218454 2.5344933252 -0.9468849981
H -2.2742354381 4.1394025185 0.7315533195
H -3.295583609 2.6928835686 0.6198304124
H -2.1786139146 2.8852240551 1.9796104248
H -5.201869479 0.59294424 -1.5214117333
H -3.8746663159 0.1380889749 -2.6331288168
H -5.0224470014 -1.6920145721 -0.4652175806
H -5.4081787893 -1.7990374295 -2.1939024105
H -3.758616241 -2.1088396096 -1.6295411268
*
