! pbe def2-sv(p) def2/J RI DEFGRID1 loosescf d4 GCP(DFT/SV(P)) printgap
%output
    printlevel normal
end
* xyz 0 1
C 4.6022275595 -1.7951837367 0.9584498866
C 4.2512768423 -0.3487207668 1.2350609907
O 3.6159877975 0.2974478183 0.1145125458
P 2.3222039384 -0.2355245328 -0.6358097078
S 2.5132003505 -1.7070314506 -1.9083498884
O 1.8295510514 1.0521263652 -1.4002737205
C 1.7787594022 2.3757405289 -0.8186987684
C 3.0022670104 3.1746537756 -1.214681381
S 0.9689653733 -0.597210595 0.9756465462
C -0.1366376277 -1.7119122032 0.0825365275
S -1.1811798961 -0.8795790416 -1.150633739
P -2.2512113414 0.4245554421 0.160757568
S -1.4077691362 2.137216475 0.5777346335
O -2.5861869789 -0.5168835231 1.4026849358
C -2.2304103006 -0.1872525012 2.7613239132
C -3.3266173515 0.6321853623 3.4112052093
O -3.6193749271 0.6609489108 -0.5944191276
C -4.7697796493 -0.2199497307 -0.5843547892
C -4.4693380982 -1.60552787 -1.1138831052
H 3.6962529443 -2.3818041068 0.8138218617
H 5.2070890313 -1.8734309928 0.058190032
H 5.1554603478 -2.1981537173 1.800596326
H 5.145737844 0.2536065791 1.4033600372
H 3.5831071413 -0.2695937253 2.0971759173
H 0.8631228007 2.8204205942 -1.2140419489
H 1.6874552222 2.2913923521 0.2675749824
H 3.9006544677 2.7084084162 -0.8186504549
H 3.0790328143 3.2209806776 -2.2975785657
H 2.9104355977 4.1801664085 -0.8165362619
H -0.7592508146 -2.2055239688 0.8234605898
H 0.4607392816 -2.4306110144 -0.481476887
H -2.0997603228 -1.1514331873 3.2546317552
H -1.2843031868 0.3617302992 2.762538662
H -3.4435896544 1.5761989864 2.8811498593
H -4.2693862618 0.0922185333 3.3884935943
H -3.056070085 0.8382675104 4.4416879862
H -5.1471978544 -0.2693777457 0.4390990356
H -5.4859056634 0.3054875553 -1.2181186251
H -3.7943719535 -2.130357519 -0.4415875462
H -5.3985163137 -2.1622841223 -1.1880047483
H -4.0087912985 -1.5465824098 -2.0972515563
*
