! pbe def2-sv(p) def2/J RI DEFGRID1 loosescf d4 GCP(DFT/SV(P)) printgap
%output
    printlevel normal
end
* xyz 0 1
C 5.7895678013 -0.3425955611 0.2424133644
C 4.4470592237 -0.7625988774 -0.3211516382
O 3.4280060385 0.0267591244 0.3231776786
P 1.9676334954 0.1610994456 -0.2915074992
S 1.9356745794 0.5887982153 -2.2084635623
O 1.311349602 1.1839619039 0.7186127062
C 1.3513611255 2.6097255331 0.5120666129
C 2.7610638063 3.1534039683 0.5908487819
S 1.1012703739 -1.6693724061 0.2768848043
C -0.1358234957 -1.8966214924 -1.0479140748
S -1.8257090493 -1.9993990144 -0.4222822884
P -2.0453447479 0.0337429806 0.1597331104
S -1.4555692126 1.373462366 -1.1381525353
O -1.2825035669 0.173064685 1.5316607142
C -1.4536083779 -0.7069188974 2.6710222862
C -2.5265770342 -0.189595966 3.6059124361
O -3.5720330982 0.134182955 0.5882124009
C -4.6255196705 0.4289082042 -0.3470593099
C -4.8397556127 -0.689212305 -1.3462737981
H 5.9785567076 0.7042496696 0.0222007171
H 5.7982312338 -0.4833147748 1.3192387622
H 6.5687360551 -0.9491808179 -0.2070844317
H 4.2408919205 -1.8169199185 -0.1174857498
H 4.3901783605 -0.5890286403 -1.4012155605
H 0.8975958783 2.8315915819 -0.4599296685
H 0.7128314217 3.001381667 1.3054899385
H 3.3505130598 2.7681053999 -0.2404955108
H 2.7306926191 4.2367999699 0.5298298438
H 3.2275257217 2.8519256591 1.5250772329
H 0.0653231514 -2.8481309526 -1.5330329927
H -0.0454659025 -1.0669801036 -1.7549514926
H -1.6926039851 -1.7115092795 2.3103970046
H -0.4715136852 -0.7134545223 3.1483839021
H -2.2980745661 0.8280331524 3.9108483847
H -3.4945643457 -0.1997574394 3.1125498042
H -2.5645168991 -0.8269730955 4.4838537188
H -5.5008967229 0.5752193106 0.2872193858
H -4.3781849448 1.3630965826 -0.8605929557
H -3.9894504633 -0.7546127145 -2.0230659009
H -4.953279919 -1.6403565887 -0.8323316615
H -5.7334491915 -0.4827336727 -1.9263808009
*
