! pbe def2-sv(p) def2/J RI DEFGRID1 loosescf d4 GCP(DFT/SV(P)) printgap
%output
    printlevel normal
end
* xyz 0 1
C 3.5338048354 -2.6245907358 -1.9081169863
C 4.5537567177 -1.838776756 -1.1120266737
O 4.1395638225 -0.4704322845 -0.8754222785
P 2.8935205992 -0.015840531 -0.0291480157
S 3.0932166423 1.873205137 0.4547812807
O 2.898714608 -1.0976737818 1.1396416651
C 1.808227999 -1.3368324034 2.0448219881
C 1.6389218527 -0.2197634734 3.0543778452
S 1.1427882109 -0.4585644836 -1.1813114455
C 0.202780896 1.0531999854 -0.8743086705
S -0.8387914137 0.9536323752 0.6008166173
P -2.7151955768 0.4913315928 -0.3311249754
S -2.7194835009 0.3694339213 -2.2836893425
O -3.6964676469 1.6389355832 0.1181717549
C -3.923468807 2.0028009585 1.5025470987
C -5.1878589067 1.3538720778 2.027657717
O -3.2579890732 -0.7483272052 0.5054968414
C -2.5218361201 -1.9552332966 0.7738642867
C -1.9990440908 -2.619778886 -0.4825562427
H 3.9403922673 -3.6052443225 -2.1350306367
H 2.6150646839 -2.7459177693 -1.3371174486
H 3.2991078123 -2.1115454196 -2.8373576327
H 5.4887816933 -1.7217072179 -1.6620572317
H 4.7464994783 -2.3082654646 -0.1459080902
H 0.8936012942 -1.4734394281 1.4595208604
H 2.0784845209 -2.2754359353 2.5320833244
H 2.576758318 -0.0354219856 3.5718293217
H 1.3312124173 0.6988405256 2.5574780907
H 0.8784966654 -0.4992906641 3.776141052
H -0.4354040488 1.2142626261 -1.7450800968
H 0.904081373 1.8758320542 -0.7237842808
H -3.0498122206 1.7140671709 2.0938657265
H -4.0120516314 3.0906323296 1.4880036964
H -6.033583651 1.6334137412 1.4054444622
H -5.0902244035 0.271903693 2.0177128328
H -5.3636594651 1.6907931584 3.0444458573
H -1.7022387201 -1.7072330206 1.454700786
H -3.2472492172 -2.5900547246 1.2857086582
H -1.2535592438 -1.9902930549 -0.9686455186
H -1.5435580392 -3.5706821109 -0.2256071455
H -2.8104900084 -2.7888760988 -1.1863569015
*
