! pbe def2-sv(p) def2/J RI DEFGRID1 loosescf d4 GCP(DFT/SV(P)) printgap
%output
    printlevel normal
end
* xyz 0 1
C 5.0070543635 -1.3097380593 -1.679095147
C 4.9052247531 0.0789206437 -1.0829889297
O 3.8323628258 0.1687172859 -0.1292739542
P 2.3069261968 0.0929018133 -0.5667915718
S 1.9126911423 1.0524244259 -2.2374865695
O 1.5715036421 0.5965945732 0.7434750197
C 1.5902201022 1.9886341751 1.1308766148
C 0.7198538313 2.1304238599 2.3614756337
S 1.8000425311 -1.945731966 -0.4684330755
C 0.0116100157 -1.7642012155 -0.6823200747
S -0.8278785321 -1.4786745964 0.9105986367
P -2.1034253937 0.079213681 0.2981448019
S -1.3963005781 1.5222375235 -0.8180945296
O -2.7347795082 0.6460763573 1.6350837112
C -3.4236952072 -0.1881534365 2.6014889802
C -2.5193121811 -0.506505689 3.7746579018
O -3.2145493935 -0.8219372867 -0.4261516798
C -4.1377545388 -0.2687188534 -1.3820806003
C -5.1735377002 0.6121190597 -0.7132515
H 5.8867849652 -1.3676987065 -2.3117844605
H 5.0756512103 -2.055076304 -0.8909769942
H 4.1227895446 -1.5174522972 -2.2808819021
H 4.7337040111 0.8239569041 -1.8667572075
H 5.7929581377 0.3402754049 -0.5057104744
H 2.625621466 2.2733314357 1.3328203234
H 1.2076590624 2.5849140043 0.2950964154
H 1.0750324803 1.4658454687 3.1438079338
H 0.7573079916 3.1581028564 2.707409396
H -0.3099719083 1.8744567093 2.1193020398
H -0.3510829089 -2.6960485004 -1.1073290477
H -0.1844900993 -0.9169937013 -1.3452387918
H -4.2805278577 0.4110982411 2.9144774071
H -3.7660520182 -1.0992936005 2.1055863657
H -1.6702920624 -1.1042086525 3.4497535002
H -2.1525396288 0.4126921547 4.2229603233
H -3.0839655167 -1.0652756612 4.5142843352
H -3.5701332035 0.3018137567 -2.1244145651
H -4.5887723663 -1.1436464906 -1.8521811837
H -5.8760625642 0.9702738028 -1.4592346132
H -5.7112332855 0.0543176069 0.0490055414
H -4.6835812302 1.4685620656 -0.250488324
*
