! pbe def2-sv(p) def2/J RI DEFGRID1 loosescf d4 GCP(DFT/SV(P)) printgap
%output
    printlevel normal
end
* xyz 0 1
C 5.4403405954 0.1024893749 0.6751757595
C 4.3720950264 -0.9430019381 0.4297556241
O 3.6386605711 -0.6618912793 -0.788915448
P 2.2783519684 0.1311311295 -0.8381879183
S 1.6163502081 0.2436056173 -2.6739756408
O 2.6671914866 1.5048063649 -0.1366880477
C 1.788121168 2.6413314587 -0.057935381
C 1.1310549981 2.7252023899 1.3059292393
S 1.0322675169 -0.8626322174 0.5756001066
C -0.0578123323 -1.7571539164 -0.5802648853
S -1.7142173421 -1.9669729586 0.0966777312
P -2.2066903488 0.0976427027 0.3269819072
S -1.5278387579 1.3409786448 -1.0228043507
O -1.7406814245 0.4917036521 1.7791693376
C -2.14305359 -0.2443410164 2.9667792095
C -0.9309240221 -0.8892276011 3.6072157291
O -3.7892348238 0.0651116739 0.4983970662
C -4.7024205194 0.1345641186 -0.609915643
C -4.6050713245 -1.0741995011 -1.5182377009
H 6.0143679662 -0.177200332 1.5530603013
H 6.1036276579 0.1645035066 -0.1832093286
H 4.9870879026 1.0766465717 0.8366238066
H 3.6655835714 -0.9939669379 1.2633616888
H 4.8119031579 -1.9267535313 0.2565411876
H 2.4330663926 3.503456652 -0.2389255971
H 1.040350222 2.5790190678 -0.8552938576
H 0.4349565551 1.9013656396 1.4496054618
H 1.8855608541 2.6946370473 2.0867255405
H 0.5787630573 3.6572422744 1.3716127391
H 0.3332696998 -2.7574053902 -0.749732764
H -0.1015706033 -1.1859663389 -1.5123322475
H -2.5936423378 0.5011955747 3.6233145361
H -2.8914808591 -0.989376405 2.6885793628
H -0.1800928146 -0.1367447247 3.8295754782
H -1.2357141947 -1.3773457975 4.5272012161
H -0.49242563 -1.6263672462 2.9385302886
H -5.6813885375 0.2021042057 -0.1331329953
H -4.4968147049 1.0528053195 -1.1688044799
H -3.6487545431 -1.0738928951 -2.0397752511
H -4.690716228 -1.9913773338 -0.9408567975
H -5.4025151336 -1.0339484532 -2.2533389304
*
