  21
  -22.1538040600000       0.308326413192539      !input
 C          2.4841165233       -0.0000309027       -0.0798522825
 C          1.0143188991       -0.0000779770        0.3320022174
 C          0.3011542533        1.2493904912       -0.1875152541
 C         -1.1686176498        1.2520097964        0.2232297882
 C         -1.8705695694       -0.0000400276       -0.2938435545
 C         -1.1685795743       -1.2519479520        0.2234713977
 C          0.3010354578       -1.2493584402       -0.1877731026
 H          2.9891730111       -0.8826805971        0.3056896675
 H          2.5736818873        0.0004309488       -1.1642587466
 H          2.9894188588        0.8823972481        0.3061946267
 H          0.9584240025       -0.0001974614        1.4269913228
 H          0.7951469751        2.1432188602        0.1999642605
 H          0.3723941785        1.2746050567       -1.2776495199
 H         -1.2396233974        1.2817894040        1.3131525360
 H         -1.6612940358        2.1442733431       -0.1686012139
 H         -2.9153065461       -0.0000112660        0.0236020251
 H         -1.8516561067       -0.0001485855       -1.3861251857
 H         -1.2391462404       -1.2812231305        1.3134426445
 H         -1.6614428411       -2.1443611311       -0.1677818997
 H          0.7951329608       -2.1433520124        0.1991626444
 H          0.3718891176       -1.2740851077       -1.2779427296
  21
  -22.1538040400000       0.308319887873810      !mtd9
 C          2.4842370268       -0.0000862210       -0.0793985205
 C          1.0142606455        0.0000562553        0.3318001844
 C          0.3010525717        1.2493435407       -0.1880066744
 C         -1.1685238314        1.2519648960        0.2234257260
 C         -1.8706289845        0.0000189132       -0.2935740795
 C         -1.1685631478       -1.2519711148        0.2234137465
 C          0.3010274625       -1.2492774676       -0.1880181210
 H          2.9893621851        0.8822137340        0.3066466083
 H          2.9891674245       -0.8827769211        0.3065082532
 H          2.5742482377       -0.0001354680       -1.1635997887
 H          0.9579182433        0.0000615474        1.4267767687
 H          0.7952542153        2.1433866002        0.1987006780
 H          0.3718212742        1.2739049252       -1.2781976480
 H         -1.2388779335        1.2813754973        1.3134544511
 H         -1.6614669843        2.1444012475       -0.1678022913
 H         -2.9153440353        0.0000124149        0.0239779309
 H         -1.8519271849        0.0000087487       -1.3858843517
 H         -1.2388903474       -1.2813868485        1.3133892410
 H         -1.6614340859       -2.1443653312       -0.1678738740
 H          0.7951859238       -2.1432683827        0.1988505713
 H          0.3717343393       -1.2740133282       -1.2781891347
  21
  -22.1538040000000       0.308306837649490      !mtd3
 C          2.4839189471       -0.0000082746       -0.0803825273
 C          1.0143343978       -0.0000242754        0.3322437679
 C          0.3012071924        1.2494786087       -0.1872088870
 C         -1.1686220094        1.2519188761        0.2233130558
 C         -1.8704363312        0.0000033720       -0.2942491784
 C         -1.1686692322       -1.2519079438        0.2233787712
 C          0.3011038851       -1.2494548454       -0.1872850391
 H          2.5729819643       -0.0000069480       -1.1647699296
 H          2.9893837802        0.8823485362        0.3051451510
 H          2.9891194422       -0.8825353640        0.3050219462
 H          0.9588587133       -0.0000162809        1.4272607583
 H          0.7951453139        2.1432600888        0.2004363304
 H          0.3725730092        1.2747761058       -1.2773268222
 H         -1.2398320250        1.2813301252        1.3132478379
 H         -1.6612438158        2.1442988362       -0.1683403083
 H         -2.9153437035        0.0000296416        0.0226075392
 H         -1.8508754553       -0.0000105729       -1.3865216155
 H         -1.2397355626       -1.2812074257        1.3133208769
 H         -1.6613324303       -2.1443249710       -0.1681318486
 H          0.7950283243       -2.1432981510        0.2002341402
 H          0.3723203664       -1.2747093724       -1.2774251178
  21
  -22.1513609200000       2.323920817754202E-002 !md5
 C          1.9527234730        0.0000544997       -0.7616463463
 C          1.1124491130       -0.0000221648        0.5144299206
 C          0.2382515122        1.2538141017        0.6292497202
 C         -0.9171699258        1.2520593511       -0.3682600902
 C         -1.7711094755        0.0000831616       -0.1948520930
 C         -0.9173253641       -1.2520224362       -0.3681523197
 C          0.2383215185       -1.2539293496        0.6291216154
 H          2.5887083043        0.8820345547       -0.7916141169
 H          2.5888962318       -0.8818919966       -0.7914101954
 H          1.3297946723       -0.0002060495       -1.6508267732
 H          1.8099238472       -0.0000298564        1.3616418054
 H         -0.1735244491        1.3006762080        1.6406708957
 H          0.8540606331        2.1434389911        0.4804241120
 H         -1.5295227857        2.1433904775       -0.2149202596
 H         -0.5294720837        1.2905510199       -1.3874956193
 H         -2.2129451104        0.0001545414        0.8046837553
 H         -2.5862384990        0.0000938549       -0.9216187497
 H         -1.5298009690       -2.1432252326       -0.2145503167
 H         -0.5298274469       -1.2907717501       -1.3874490589
 H         -0.1731962391       -1.3011902357        1.6406335995
 H          0.8541442258       -2.1434673984        0.4797883804
  21
  -22.1513609200000       2.323920817754202E-002 !md5
 C          1.9531793665        0.0000500708       -0.7613248038
 C          1.1124194680       -0.0000612563        0.5144367928
 C          0.2383353939        1.2539069585        0.6288552879
 C         -0.9173984078        1.2519341563       -0.3683116330
 C         -1.7713044095        0.0000320849       -0.1943545588
 C         -0.9174674273       -1.2519115429       -0.3683164160
 C          0.2382612128       -1.2539843274        0.6288459909
 H          1.3308185536        0.0005107448       -1.6509258993
 H          2.5894920596        0.8818683879       -0.7906955293
 H          2.5892383380       -0.8818782807       -0.7907258333
 H          1.8095812656       -0.0000688606        1.3619083319
 H         -0.1731221722        1.3013517939        1.6403752535
 H          0.8542638291        2.1433534940        0.4794075990
 H         -1.5296472990        2.1433387468       -0.2150189369
 H         -0.5299951981        1.2901164322       -1.3876726788
 H         -2.2123525318        0.0000507315        0.8055129073
 H         -2.5869749554        0.0000515153       -0.9204929527
 H         -1.5297806913       -2.1432810711       -0.2150419534
 H         -0.5300726277       -1.2900928433       -1.3876790905
 H         -0.1731903207       -1.3014585568        1.6403677363
 H          0.8541203225       -2.1434587741        0.4793505015
  21
  -22.1513608800000       2.323822453395733E-002 !md4
 C          1.9524681610       -0.0002176599       -0.7618113346
 C          1.1124937690        0.0000590976        0.5144393115
 C          0.2382995112        1.2539104146        0.6292984319
 C         -0.9172500939        1.2521055447       -0.3681074040
 C         -1.7710143361       -0.0000575152       -0.1950584306
 C         -0.9170545529       -1.2520311441       -0.3682764158
 C          0.2382468089       -1.2537326319        0.6294129475
 H          2.5882562344       -0.8825275166       -0.7917366166
 H          1.3292332274       -0.0003773165       -1.6507356571
 H          2.5888064377        0.8816306252       -0.7920397014
 H          1.8101576795        0.0001087410        1.3614867108
 H         -0.1733034633        1.3009386894        1.6407615476
 H          0.8540770189        2.1434610839        0.4802375936
 H         -1.5298243900        2.1432353957       -0.2144377581
 H         -0.5296036716        1.2910760938       -1.3873350042
 H         -2.2129875906       -0.0001926777        0.8044058654
 H         -2.5860251452       -0.0000559645       -0.9219189443
 H         -1.5294930200       -2.1433536652       -0.2150382393
 H         -0.5291972220       -1.2905827473       -1.3874153466
 H         -0.1736769367       -1.3003813482        1.6407474819
 H          0.8540042088       -2.1434096593        0.4808956954
  21
  -22.1497299700000       4.137029354900341E-003 !gc
 C          2.5003789729        0.0000537452       -0.0711151439
 C          1.0148521705       -0.0000399770        0.3274646570
 C          0.2972383921        1.2473667955       -0.1938470907
 C         -1.1706226223        1.2516757261        0.2240337716
 C         -1.8764535765        0.0000298827       -0.2881862869
 C         -1.1707237573       -1.2516602986        0.2240444529
 C          0.2971460489       -1.2474410499       -0.1938692082
 H          3.1436734021        0.0096066170        0.8045225718
 H          2.7445553379       -0.8832578979       -0.6559618468
 H          2.7403008095        0.8738280605       -0.6718097959
 H          0.9365094765        0.0000573075        1.4203052669
 H          0.7917313774        2.1426041808        0.1899015184
 H          0.3625260137        1.2678210366       -1.2844809175
 H         -1.2357972435        1.2829539930        1.3143083799
 H         -1.6641886826        2.1441681533       -0.1662106038
 H         -2.9189579558        0.0000027352        0.0364861493
 H         -1.8650478290        0.0000307599       -1.3805484434
 H         -1.2358324960       -1.2828455739        1.3143489797
 H         -1.6643280131       -2.1441521227       -0.1661681181
 H          0.7914402311       -2.1428092995        0.1898681815
 H          0.3626332386       -1.2678270981       -1.2844914725
  21
  -22.1480986100000       7.361519310870968E-004 !mtd1
 C          1.9512130963        0.0001676177       -0.7701387009
 C          1.1118778960       -0.0001811812        0.5187647158
 C          0.2331530874        1.2508374007        0.6380836299
 C         -0.9114865757        1.2485923151       -0.3713506029
 C         -1.7698620459        0.0000408167       -0.1990474118
 C         -0.9113970672       -1.2484675809       -0.3715038854
 C          0.2329150860       -1.2510085350        0.6382324587
 H          3.0134081450        0.0042198828       -0.5388734645
 H          1.7481811771       -0.8806078581       -1.3732296951
 H          1.7423533382        0.8770555549       -1.3768933268
 H          1.7984619659       -0.0004059400        1.3732388322
 H         -0.1883292269        1.2882033064        1.6458596999
 H          0.8481216483        2.1433335463        0.5034829036
 H         -1.5212983856        2.1441352357       -0.2338777339
 H         -0.5121573895        1.2712668875       -1.3870206553
 H         -2.2152979543       -0.0000227946        0.7987630088
 H         -2.5816490155        0.0000333319       -0.9293676140
 H         -1.5213065099       -2.1439970800       -0.2341491825
 H         -0.5118857854       -1.2710767214       -1.3871761510
 H         -0.1886081327       -1.2883027779        1.6460148871
 H          0.8477576176       -2.1436064035        0.5036502759
  21
  -22.1453337200000       3.947407748472171E-005 !mtd10
 C          2.4661997832        0.0106760404        0.0720377174
 C          0.9644537600        0.0298402110        0.3435135034
 C          0.2749858445        1.1634441126       -0.4144881169
 C         -1.1836681076        1.3114426224        0.0361029324
 C         -1.7917273803       -0.0418744332        0.4260474290
 C         -1.1625264509       -1.1599955631       -0.3973577039
 C          0.3228417749       -1.3117872047       -0.0466357218
 H          2.9294806336        0.9326431811        0.4162413267
 H          2.9348905043       -0.8238542559        0.5887481349
 H          2.6583548716       -0.0924335371       -0.9940514339
 H          0.8142632797        0.2002088460        1.4150032947
 H          0.8075700173        2.1017698069       -0.2495880955
 H          0.3192988288        0.9464318636       -1.4835029941
 H         -1.2396838176        1.9892480663        0.8899467839
 H         -1.7635542198        1.7581367170       -0.7736480321
 H         -1.6149279560       -0.2423260254        1.4844554501
 H         -2.8718809272       -0.0209832347        0.2724392605
 H         -1.6826526330       -2.1018499704       -0.2147673079
 H         -1.2766509910       -0.9229024780       -1.4566382187
 H          0.4371748929       -2.0144747628        0.7811491620
 H          0.8525075780       -1.7304184908       -0.9048297917
  21
  -22.1453337000000       3.947324206818964E-005 !mtd7
 C          2.4661482059        0.0107733674        0.0719056117
 C          0.9645026053        0.0298184202        0.3435997738
 C          0.2750958751        1.1635029371       -0.4143756969
 C         -1.1836173375        1.3113923999        0.0360424049
 C         -1.7917209308       -0.0418935429        0.4260049497
 C         -1.1625907198       -1.1600426352       -0.3973853752
 C          0.3227595072       -1.3117961403       -0.0465238001
 H          2.6580766461       -0.0935134858       -0.9941400257
 H          2.9293136243        0.9332491448        0.4149998879
 H          2.9350848725       -0.8231741980        0.5894262651
 H          0.8144800921        0.2001509058        1.4150989309
 H          0.8076744780        2.1018329612       -0.2492449255
 H          0.3195305012        0.9466243830       -1.4834177548
 H         -1.2398871567        1.9892417964        0.8898110437
 H         -1.7633775038        1.7579780244       -0.7738219738
 H         -1.6150943686       -0.2423951993        1.4844331557
 H         -2.8718378649       -0.0210450488        0.2721877496
 H         -1.6827520627       -2.1018645661       -0.2147076023
 H         -1.2766836987       -0.9229964414       -1.4566897783
 H          0.4370618938       -2.0145534902        0.7812141751
 H          0.8523863243       -1.7304465616       -0.9047615711
  21
  -22.1453336800000       3.947240666948643E-005 !mtd10
 C          2.4661345409       -0.0109555150        0.0727884528
 C          0.9642620705       -0.0297380769        0.3433480999
 C          0.3230935598        1.3117284149       -0.0479046958
 C         -1.1628769689        1.1603530191       -0.3965282863
 C         -1.7914228747        0.0417071208        0.4266461281
 C         -1.1836311292       -1.3114135007        0.0356513865
 C          0.2750570977       -1.1634415234       -0.4147715265
 H          2.9291228566       -0.9327848544        0.4175919066
 H          2.6588425799        0.0917085903       -0.9931935510
 H          2.9345786972        0.8237610424        0.5893432873
 H          0.8134165998       -0.1995722277        1.4148119612
 H          0.4391200262        2.0157017548        0.7785408486
 H          0.8519282059        1.7284841505       -0.9075292394
 H         -1.6826169075        2.1020972901       -0.2123215425
 H         -1.2786179867        0.9242392218       -1.4558497286
 H         -1.6141385546        0.2416684377        1.4850746485
 H         -2.8716500728        0.0208811542        0.2735535323
 H         -1.2398861450       -1.9898029153        0.8889931379
 H         -1.7636050994       -1.7573825275       -0.7744211166
 H          0.8076505399       -2.1017828197       -0.2499805143
 H          0.3193651993       -0.9462418996       -1.4837695278
  21
  -22.1453336500000       3.947115360450750E-005 !mtd4
 C          2.4661732428       -0.0106452970        0.0712077329
 C          0.9646496643       -0.0298164283        0.3438411376
 C          0.3228547177        1.3118616864       -0.0458999599
 C         -1.1622899550        1.1600908019       -0.3973647086
 C         -1.7920866621        0.0418840311        0.4254440586
 C         -1.1838572656       -1.3114155765        0.0358943061
 C          0.2751327366       -1.1637207149       -0.4137407952
 H          2.6571686168        0.0931715482       -0.9950287854
 H          2.9353234602        0.8235965812        0.5879288410
 H          2.9298904662       -0.9328302389        0.4142913745
 H          0.8152576294       -0.2001255428        1.4154358037
 H          0.4367179027        2.0142052345        0.7821760809
 H          0.8527488801        1.7310164219       -0.9036289703
 H         -1.6824610189        2.1018756151       -0.2146700007
 H         -1.2759276318        0.9233958704       -1.4567692906
 H         -1.6163174180        0.2423796837        1.4840231804
 H         -2.8720829115        0.0210681225        0.2707670025
 H         -1.2406752592       -1.9892553510        0.8896499506
 H         -1.7631588802       -1.7580420825       -0.7743220565
 H          0.8074513368       -2.1020745065       -0.2479347877
 H          0.3200492654       -0.9473898451       -1.4828881388
  21
  -22.1453336100000       3.946948291303098E-005 !mtd7
 C          2.4661272147       -0.0109131014        0.0727204606
 C          0.9642301670       -0.0297849076        0.3433378605
 C          0.3231487916        1.3118169628       -0.0475426230
 C         -1.1626586683        1.1602263205       -0.3967923365
 C         -1.7915423568        0.0417042921        0.4263690750
 C         -1.1835550291       -1.3115809304        0.0361280581
 C          0.2748577277       -1.1632333229       -0.4150400615
 H          2.9343553611        0.8244697607        0.5883356390
 H          2.9292379061       -0.9321732682        0.4187680823
 H          2.6590496135        0.0904131024       -0.9933511008
 H          0.8133426749       -0.1999366690        1.4147560601
 H          0.4387221601        2.0154354585        0.7793061816
 H          0.8523090569        1.7291085098       -0.9067519920
 H         -1.6824740263        2.1020375455       -0.2130245955
 H         -1.2779113027        0.9238728338       -1.4561319152
 H         -1.6148218361        0.2419520151        1.4848244101
 H         -2.8716779429        0.0207556743        0.2727177015
 H         -1.2389768965       -1.9892714925        0.8900697260
 H         -1.7637527398       -1.7584689264       -0.7732634784
 H          0.8075661482       -2.1016068705       -0.2508796548
 H          0.3186424514       -0.9455581515       -1.4839455394
  21
  -22.1453335800000       3.946822994071933E-005 !mtd4
 C          2.4660946055        0.0106280281        0.0717749277
 C          0.9645038544        0.0296559662        0.3437487660
 C          0.2752686502        1.1639023024       -0.4136411265
 C         -1.1840585159        1.3112987839        0.0351521594
 C         -1.7915566407       -0.0417374568        0.4263033790
 C         -1.1626774434       -1.1601333245       -0.3968644012
 C          0.3229754289       -1.3118483654       -0.0470477449
 H          2.9348211786       -0.8244116147        0.5876929100
 H          2.6575398357       -0.0919857768       -0.9945385073
 H          2.9296883462        0.9323290338        0.4161633957
 H          0.8146348036        0.1995592037        1.4153395354
 H          0.8074990188        2.1021673713       -0.2470231126
 H          0.3210692792        0.9479629899       -1.4828137618
 H         -1.2418348128        1.9906346444        0.8876811275
 H         -1.7631044116        1.7560963091       -0.7762061566
 H         -1.6141849319       -0.2417008018        1.4847612922
 H         -2.8717988304       -0.0213030074        0.2731294106
 H         -1.6827233332       -2.1019303867       -0.2135924977
 H         -1.2774013817       -0.9238773451       -1.4562754384
 H          0.4378387119       -2.0150893611        0.7801235429
 H          0.8522572354       -1.7294956387       -0.9059381179
  21
  -22.1452649300000       3.670272368344869E-005 !mtd4
 C          2.3100489783       -0.1818832040       -0.4215627647
 C          1.0825929468        0.1034963373        0.4415076733
 C          0.2691893193        1.2617407731       -0.1558121715
 C         -1.1787912420        1.2054984282        0.3183455797
 C         -1.8817249795       -0.0327135692       -0.2527800973
 C         -0.8935012813       -1.1859965045       -0.4641496283
 C          0.2028328337       -1.1500742930        0.5948216076
 H          2.8939147435        0.7252420312       -0.5616461673
 H          2.9448433053       -0.9297106527        0.0484907068
 H          2.0103117887       -0.5512188296       -1.3999005496
 H          1.4307328329        0.4009273488        1.4370260488
 H          0.7227656750        2.2125601803        0.1300744026
 H          0.2882332247        1.2040990606       -1.2457918054
 H         -1.1897411071        1.1736310910        1.4095784861
 H         -1.7106978090        2.1077878529        0.0121886518
 H         -2.6735374137       -0.3441637056        0.4309877030
 H         -2.3525759103        0.2145628944       -1.2060373141
 H         -1.4234548391       -2.1391100326       -0.4227865474
 H         -0.4364170132       -1.1106718084       -1.4520590790
 H         -0.2646756322       -1.1596541188        1.5812564080
 H          0.8251101233       -2.0434284123        0.5191960400
  21
  -22.1452649300000       3.670272368344869E-005 !gc
 C          2.3101019043        0.1819982168       -0.4215262967
 C          1.0826130564       -0.1036058866        0.4413954275
 C          0.2029866294        1.1500030390        0.5948689038
 C         -0.8933737908        1.1858917146       -0.4641179840
 C         -1.8817391963        0.0326656913       -0.2528498400
 C         -1.1789390649       -1.2054534683        0.3185468861
 C          0.2689651312       -1.2616266045       -0.1559412657
 H          2.0104163828        0.5521788092       -1.3995410278
 H          2.9453540646        0.9291812616        0.0490040900
 H          2.8936724577       -0.7252260285       -0.5624790506
 H          1.4307296894       -0.4012092921        1.4368604404
 H         -0.2644347012        1.1596858184        1.5813670610
 H          0.8253557516        2.0432801797        0.5191707733
 H         -1.4232472172        2.1390554455       -0.4227265633
 H         -0.4363432906        1.1106055610       -1.4520688724
 H         -2.6735337069        0.3441768787        0.4308587539
 H         -2.3524486916       -0.2147151673       -1.2061291047
 H         -1.1896290315       -1.1731857928        1.4097971974
 H         -1.7110648707       -2.1077668449        0.0128016873
 H          0.7225582606       -2.2125440870        0.1295066928
 H          0.2878070912       -1.2036626165       -1.2459122097
  21
  -22.1452649200000       3.670233529914280E-005 !gc
 C          2.3100873280       -0.1818193695       -0.4213844547
 C          1.0825604857        0.1035249135        0.4415510343
 C          0.2691903833        1.2615687943       -0.1560752058
 C         -1.1787151081        1.2054059940        0.3183978102
 C         -1.8818660918       -0.0327321818       -0.2525327001
 C         -0.8934806626       -1.1857904375       -0.4643128845
 C          0.2028587032       -1.1500727445        0.5947207312
 H          2.9452373755       -0.9289266590        0.0493196123
 H          2.0105359504       -0.5522283041       -1.3993760063
 H          2.8935503429        0.7254441324       -0.5623298987
 H          1.4305315958        0.4011726959        1.4370719582
 H          0.7228182363        2.2125147304        0.1293113390
 H          0.2881317554        1.2034872031       -1.2460353511
 H         -1.1893540732        1.1735553001        1.4096664183
 H         -1.7106981614        2.1076853851        0.0123605137
 H         -2.6732829393       -0.3442897720        0.4316180864
 H         -2.3531239544        0.2145745212       -1.2055734139
 H         -1.4233527861       -2.1389590091       -0.4232580600
 H         -0.4364880518       -1.1101006665       -1.4522494488
 H         -0.2646990371       -1.1598895860        1.5811582444
 H          0.8251432103       -2.0433896674        0.5189629222
  21
  -22.1452649000000       3.670155854299851E-005 !mtd4
 C          2.3094875039       -0.1823376516       -0.4221036419
 C          1.0826645339        0.1036140241        0.4415992185
 C          0.2691130160        1.2618952963       -0.1554590129
 C         -1.1789162384        1.2052706546        0.3185939193
 C         -1.8814591110       -0.0326410607       -0.2535195565
 C         -0.8929995487       -1.1859357588       -0.4641166828
 C          0.2027752511       -1.1497593249        0.5954478863
 H          2.0091636141       -0.5520336984       -1.4001328020
 H          2.8934537942        0.7245978722       -0.5629202886
 H          2.9443879438       -0.9301409229        0.0478491029
 H          1.4313929004        0.4010479276        1.4369027836
 H          0.7224837084        2.2127478241        0.1305663655
 H          0.2882402908        1.2044871734       -1.2454451300
 H         -1.1898685977        1.1725617451        1.4098421944
 H         -1.7110754703        2.1076624999        0.0130720560
 H         -2.6739972807       -0.3440144207        0.4294152387
 H         -2.3512221870        0.2150297236       -1.2072281515
 H         -1.4227984889       -2.1390843074       -0.4229588276
 H         -0.4353937413       -1.1106263384       -1.4517351390
 H         -0.2651478076       -1.1585867401        1.5817218819
 H          0.8249688803       -2.0432507942        0.5207705057
  21
  -22.1452648800000       3.670078180315514E-005 !mtd7
 C          2.3102724290        0.1818009656       -0.4214561072
 C          1.0826390100       -0.1035834969        0.4413191928
 C          0.2031002342        1.1501144205        0.5947176286
 C         -0.8936893418        1.1860935540       -0.4638286056
 C         -1.8817283379        0.0324504830       -0.2530582146
 C         -1.1789014222       -1.2054515356        0.3186861310
 C          0.2689229793       -1.2615543728       -0.1560200946
 H          2.9455985904        0.9289206488        0.0491075551
 H          2.8935426512       -0.7255930246       -0.5622440047
 H          2.0107779351        0.5520560911       -1.3995287806
 H          1.4305209147       -0.4011787052        1.4368789340
 H         -0.2639898222        1.1599443656        1.5813603037
 H          0.8255067176        2.0433487472        0.5187224587
 H         -1.4237839151        2.1391024942       -0.4217723803
 H         -0.4369431824        1.1114616554       -1.4519354418
 H         -2.6740903167        0.3436117737        0.4301434652
 H         -2.3517389207       -0.2152000437       -1.2066176945
 H         -1.1893495589       -1.1727330575        1.4099224550
 H         -1.7110918878       -2.1078882112        0.0134047772
 H          0.7226038251       -2.2125102553        0.1292451849
 H          0.2876186551       -1.2034563622       -1.2459874821
  21
  -22.1452648700000       3.670039343939802E-005 !mtd7
 C          2.3109574466        0.1813422173       -0.4204234750
 C          1.0824327616       -0.1034875779        0.4412577256
 C          0.2031622431        1.1505631592        0.5937965288
 C         -0.8939390498        1.1856567358       -0.4644137199
 C         -1.8823207593        0.0327520534       -0.2514389967
 C         -1.1786967106       -1.2056959309        0.3183351041
 C          0.2689806230       -1.2611869328       -0.1569151868
 H          2.8943347603       -0.7261433419       -0.5601620618
 H          2.0125868473        0.5513351057       -1.3989769509
 H          2.9457497928        0.9285032890        0.0507010456
 H          1.4292324433       -0.4012839577        1.4371366751
 H         -0.2637407466        1.1612389968        1.5805013700
 H          0.8255790681        2.0436880704        0.5169385122
 H         -1.4237105308        2.1389039702       -0.4235169230
 H         -0.4376437930        1.1094307414       -1.4526323851
 H         -2.6726116508        0.3444876845        0.4339435228
 H         -2.3551197849       -0.2142996346       -1.2037691285
 H         -1.1886121094       -1.1743563955        1.4096519895
 H         -1.7107264375       -2.1079225746        0.0121800718
 H          0.7229530928       -2.2122727726        0.1274850443
 H          0.2873754442       -1.2023014132       -1.2468514931
