! r2scan-3c def2/J RI DEFGRID2 scfconv6 printgap
%output
    printlevel normal
end
%cpcm
    smd true
    smdsolvent "water"
end
* xyz 0 1
C 4.6690620343 0.2971049003 0.5683286242
C 4.41426603 -0.765947351 -0.4855595605
O 3.0243278302 -0.7218423722 -0.871141565
C 2.3189779486 -1.8407358281 -0.8808306878
O 2.77127295 -2.9353396691 -0.6321631255
C 0.8715357131 -1.6000664722 -1.2543232048
C 0.5251876945 -0.1220149329 -1.2551580014
H 1.0324657492 0.4234319579 -2.052711738
C 0.8357126097 0.5331560344 0.0752102706
O 0.8495220693 -0.0619093699 1.1316580566
O 1.0499773355 1.820764455 -0.057084268
C 1.3280519653 2.582217775 1.1368557476
C 1.2914910218 4.0538847519 0.7765135357
S -1.2539363721 0.162564799 -1.5693363643
P -2.1144176595 -0.1890163053 0.3478562249
S -1.7506673037 -1.8751277332 1.2735915838
O -1.8362237435 1.1063328987 1.2179395999
C -2.2924565527 2.4130744921 0.799625814
O -3.6566028329 0.0234214782 -0.0082067102
C -4.397481593 -0.9739304481 -0.7215604732
H 4.0408091062 0.1159616892 1.43819074
H 5.7106397901 0.2612422234 0.86970057
H 4.4450939199 1.2811212994 0.1657711468
H 4.6376492037 -1.7689804865 -0.1116224946
H 4.9940903544 -0.5727471966 -1.3911746115
H 0.2645749072 -2.1435326356 -0.5231818852
H 0.6839557292 -2.0402884403 -2.2350259669
H 0.5849921805 2.3154950641 1.8952024911
H 2.3126924043 2.2804572578 1.50638809
H 2.0297756431 4.2645921332 0.0090262211
H 0.310052499 4.3297617825 0.4033917639
H 1.5165933931 4.6412721242 1.660349002
H -1.8433551806 2.6737074554 -0.159136132
H -1.9652405103 3.0916903832 1.5831686392
H -3.3768686043 2.414641153 0.7165194377
H -4.1696506686 -1.9647188192 -0.3253217307
H -4.1483698163 -0.9281290536 -1.7808916192
H -5.4450252841 -0.7319733856 -0.5613650668
*
