  17
        -29.94120239
 C          2.4479700735        0.3012340657        0.5850805979
 O          1.1616927122        0.8817251429        0.3442866447
 P          0.0438317720       -0.0095385729       -0.3485982880
 O          0.4156522554       -0.7078843769       -1.5857619557
 O         -0.3833365515       -0.9920738367        0.8503704943
 C         -0.9943415162       -2.2485209002        0.5494523144
 O         -1.1362854569        1.0178606247       -0.5592438613
 C         -1.6146177191        1.8041385889        0.5444903424
 H          2.4035397272       -0.3363732319        1.4671572448
 H          3.1270799281        1.1350674328        0.7471168719
 H          2.7588773667       -0.2850399896       -0.2799444635
 H         -0.6884662309       -2.5797250967       -0.4431330624
 H         -2.0784307940       -2.1458593266        0.5848391862
 H         -0.6531458413       -2.9493432163        1.3086207142
 H         -0.9217970323        2.6212685792        0.7355792976
 H         -1.7077889193        1.1848173790        1.4354076719
 H         -2.5846709425        2.1853074808        0.2342762101
  17
        -29.94042111
 C          2.4039219612        0.6984780577        0.2646848686
 O          1.1134814801        0.2930121374        0.7248588250
 P         -0.0321780035       -0.0750199393       -0.3410905293
 O          0.4797628040       -0.6408957157       -1.5956044228
 O         -0.9916346715       -0.9956521305        0.5296891388
 C         -0.5621416511       -2.3248230812        0.8417772354
 O         -0.9096853130        1.2147609400       -0.5757476493
 C         -1.5003653020        1.9278498566        0.5257442814
 H          2.5932187896        0.2777680479       -0.7231214340
 H          3.1243042993        0.3188903978        0.9863729396
 H          2.4503952036        1.7859105807        0.2166523829
 H         -1.4551068078       -2.8615893198        1.1536214832
 H          0.1709428916       -2.2951576794        1.6470999300
 H         -0.1226518355       -2.7898731399       -0.0409834583
 H         -2.5316922303        2.1331216736        0.2467764720
 H         -0.9526855080        2.8585916117        0.6656531409
 H         -1.4660645613        1.3289546372        1.4325509734
  17
        -29.93991667
 C          2.4960225418        0.7252156689        0.0644419563
 O          1.3845582372        0.0708579655        0.6875088006
 P          0.0079293954       -0.0224738661       -0.0960978993
 O          0.1206848026       -0.3581618518       -1.5289746938
 O         -0.8340094750       -1.0472099920        0.7749598040
 C         -0.6571559449       -2.4523121078        0.5601615100
 O         -0.6818755790        1.3710420541        0.2204172892
 C         -1.8495092097        1.7518493915       -0.5166236058
 H          3.3890178560        0.3096699189        0.5259003799
 H          2.4353178277        1.7978197762        0.2430942772
 H          2.4877170149        0.5267696773       -1.0076811405
 H         -1.5777958101       -2.9271374697        0.8918695550
 H          0.1901223947       -2.8073369913        1.1450838535
 H         -0.4835226267       -2.6450021573       -0.4988936928
 H         -1.7671181355        1.4015522003       -1.5459030273
 H         -1.8881703270        2.8382955552       -0.4818283457
 H         -2.7334885500        1.3211880486       -0.0484249602
  17
        -29.93809552
 C          1.8135748989        0.4944074181        1.3747543847
 O          1.4663327517        0.3693152916       -0.0120542868
 P          0.0215576388       -0.1073679979       -0.4966691671
 O         -0.0729122240       -0.0009626309       -1.9525530523
 O         -0.2405070475       -1.5744187952        0.0264482033
 C         -0.5959954504       -1.9153304204        1.3780077236
 O         -1.0380542556        0.7608935889        0.3434509621
 C         -1.3678195390        2.0644187717       -0.1407125349
 H          2.5299812894        1.3122060798        1.4322450200
 H          2.2783085901       -0.4301157750        1.7149822104
 H          0.9337784138        0.7202485096        1.9761982242
 H         -1.1717775031       -2.8359200651        1.3036616678
 H         -1.2008323043       -1.1289294460        1.8232311102
 H          0.3062675310       -2.0845708215        1.9637439599
 H         -2.3629327802        2.2867165993        0.2383668720
 H         -1.3632167161        2.0663107925       -1.2308083612
 H         -0.6449491560        2.7917984859        0.2284815984
  17
        -29.93789199
 C          2.3807855831        1.0828321783        0.0780696771
 O          1.2371599605        0.4785659933        0.6909966313
 P          0.1085907493       -0.1460714350       -0.2414884133
 O          0.5506613910       -0.7753528855       -1.4910154863
 O         -0.5497475514       -1.0992351944        0.8511531219
 C         -1.3996863710       -2.1612030908        0.4052750881
 O         -0.9468658802        1.0127142067       -0.5462352320
 C         -1.5023574230        1.7729252849        0.5378958461
 H          2.5859518415        0.6062190749       -0.8810592962
 H          3.2109042126        0.9305966604        0.7647164651
 H          2.2001998954        2.1473915604       -0.0708324138
 H         -1.0689804937       -2.5190449276       -0.5703573829
 H         -2.4288656919       -1.8084681291        0.3381270003
 H         -1.3155427609       -2.9502820990        1.1494941448
 H         -2.5852339206        1.7463929341        0.4304473625
 H         -1.1421899366        2.7970981064        0.4548307962
 H         -1.2042175763        1.3467384477        1.4950624877
  17
        -29.93744090
 C          2.0219379119        0.6401311857        1.1843591650
 O          1.5628721052       -0.0419051679        0.0039329668
 P          0.0587346452       -0.0811011682       -0.4855015732
 O         -0.1034022543       -0.0196229729       -1.9393748809
 O         -0.5804776718       -1.4346257870        0.0673219896
 C         -0.5364818002       -1.7634304032        1.4621441499
 O         -0.6149703011        1.1165596117        0.3443349229
 C         -1.8530169025        1.6528332549       -0.1263210209
 H          2.1252556960        1.7028738455        0.9710293634
 H          2.9922583571        0.2025059307        1.4096348379
 H          1.3333784017        0.5008353293        2.0143445856
 H         -1.2131006971       -2.6065258031        1.5845781490
 H         -0.8710517238       -0.9184460122        2.0642757078
 H          0.4762865818       -2.0496218084        1.7440551481
 H         -1.8870163918        1.6049405679       -1.2149228653
 H         -1.8864498412        2.6857233470        0.2133976246
 H         -2.6854466609        1.0853305342        0.2894536917
  17
        -29.93724956
 C          2.6127275573       -0.0297703062        0.2604352590
 O          1.3970650436        0.6984840359        0.4689618644
 P          0.0544994239        0.1190864528       -0.1377512365
 O          0.1237082288       -0.4147628997       -1.5106961807
 O         -0.4865681583       -0.9573631555        0.9201883646
 C         -0.7550705391       -2.3101918824        0.5407250218
 O         -0.8342915513        1.4061514635        0.0950323483
 C         -2.1646623540        1.4121474813       -0.4365175205
 H          2.7192187690       -0.7975229051        1.0267924580
 H          3.4170123061        0.6983381234        0.3393747715
 H          2.6090840153       -0.4884982115       -0.7293185915
 H         -0.6084397536       -2.4303600458       -0.5327439558
 H         -1.7868394566       -2.5318096240        0.8081955989
 H         -0.0756236400       -2.9609520246        1.0889719978
 H         -2.8313416669        0.8617670655        0.2274000426
 H         -2.1728820989        0.9606281400       -1.4295324180
 H         -2.4598978171        2.4575489204       -0.4904274411
