  17
        -29.94120239
 C          2.4479700735        0.3012340657        0.5850805979
 O          1.1616927122        0.8817251429        0.3442866447
 P          0.0438317720       -0.0095385729       -0.3485982880
 O          0.4156522554       -0.7078843769       -1.5857619557
 O         -0.3833365515       -0.9920738367        0.8503704943
 C         -0.9943415162       -2.2485209002        0.5494523144
 O         -1.1362854569        1.0178606247       -0.5592438613
 C         -1.6146177191        1.8041385889        0.5444903424
 H          2.4035397272       -0.3363732319        1.4671572448
 H          3.1270799281        1.1350674328        0.7471168719
 H          2.7588773667       -0.2850399896       -0.2799444635
 H         -0.6884662309       -2.5797250967       -0.4431330624
 H         -2.0784307940       -2.1458593266        0.5848391862
 H         -0.6531458413       -2.9493432163        1.3086207142
 H         -0.9217970323        2.6212685792        0.7355792976
 H         -1.7077889193        1.1848173790        1.4354076719
 H         -2.5846709425        2.1853074808        0.2342762101
