! pbe def2-sv(p) def2/J RI DEFGRID1 loosescf d4 GCP(DFT/SV(P)) printgap
%output
    printlevel normal
end
* xyz 0 1
C 5.492190853 1.4150944979 -1.5581053058
C 3.9852400702 1.295632256 -1.4514845829
O 3.6901734253 0.2257251279 -0.5354421815
P 2.2679970467 0.0745847195 0.1617496547
S 1.6420044498 1.7441138017 0.9785998964
O 2.5300385065 -1.1418291788 1.1273295422
C 2.5744208188 -1.0364172338 2.5712147805
C 1.5733372606 -1.9969246084 3.1799688179
S 1.1135168061 -0.8158203161 -1.3816757569
C -0.0157594858 -1.8227259748 -0.3689914906
S -1.0126179571 -0.8712880193 0.7975386508
P -2.2789003851 0.1274421268 -0.6026470702
S -2.3142124771 -0.6600234423 -2.3958194268
O -1.8033351254 1.6322483382 -0.6158948102
C -2.219859296 2.6578329321 0.3198335612
C -1.9251085308 2.3023449191 1.7611368529
O -3.6952643355 0.2228342911 0.1137894538
C -4.6895866684 -0.809702276 -0.0115052795
C -4.2689283584 -2.0999025976 0.6617516702
H 5.9159028591 1.6508452776 -0.5860651194
H 5.9126507018 0.4769548023 -1.9082833386
H 5.738171834 2.205562594 -2.259478428
H 3.5326239432 1.0544241893 -2.4180374229
H 3.5359562766 2.2190219666 -1.0683725873
H 3.5970038767 -1.2875047732 2.858086315
H 2.3570323288 -0.0020552036 2.8577017505
H 1.7832117382 -3.0124443535 2.8565033395
H 1.6494460962 -1.9440111278 4.2610602136
H 0.5618761065 -1.7283275135 2.8808668462
H 0.559910663 -2.5375938758 0.2128454718
H -0.6658684529 -2.319745731 -1.0893915739
H -1.6475729179 3.5304113416 0.0012061428
H -3.2872938071 2.8321443256 0.1693374416
H -0.8593333994 2.1381513228 1.9006923754
H -2.240116835 3.1242405281 2.3961818493
H -2.4648858842 1.4022672586 2.0486044407
H -5.5717083392 -0.3765390149 0.462052727
H -4.8806015859 -0.9761953878 -1.0761045572
H -3.9660479604 -1.9126305472 1.6886984329
H -5.1024731176 -2.7947639363 0.6522638867
H -3.4343721644 -2.5454754999 0.1227392471
*
