! pbe def2-sv(p) def2/J RI DEFGRID1 loosescf d4 GCP(DFT/SV(P)) printgap
%output
    printlevel normal
end
* xyz 0 1
C 2.802517784 -4.2717520666 0.7820614857
C 2.3368289533 -3.3939697756 -0.3681463309
O 2.5424799754 -1.9989915009 -0.0741112767
C 1.6339094503 -1.3645057148 0.6287997933
O 0.617832223 -1.8729504467 1.0631873996
C 1.971470119 0.0982408289 0.8094698937
C 0.8629020924 0.9442537558 0.193431061
H 0.6976032348 0.6637318278 -0.8557501037
C 1.1754856358 2.4340965003 0.2549123266
O 2.154850241 2.8888568316 0.7950535949
O 0.2429877971 3.1333145021 -0.3527199786
C 0.3904625649 4.5686115245 -0.3998223616
C 1.2328564821 4.987466625 -1.593661937
S -0.7408375657 0.7010085519 1.0406061604
P -1.5904959554 -0.781352745 -0.2365168875
S -0.6161738369 -1.2184614845 -1.8767049597
O -2.0358738595 -2.0436857726 0.5907945763
C -2.6051473267 -1.9492070274 1.9104466444
O -3.0375210054 -0.1412852991 -0.526909349
C -3.1672324653 1.0508336446 -1.3055827087
H 2.6999164608 -5.3140839153 0.4991993254
H 3.843292269 -4.0622700954 1.013199575
H 2.1961524395 -4.0843748158 1.6653195152
H 1.2739189251 -3.5507185013 -0.5772497091
H 2.9243084923 -3.5672708517 -1.2696103435
H 2.9182067418 0.3184498618 0.3172310764
H 2.0519228886 0.3270537582 1.8736687941
H -0.6295225515 4.9436307258 -0.4803673326
H 0.848719311 4.9004886391 0.5355035316
H 0.8035605516 4.5956348095 -2.5116745473
H 1.2636462294 6.0706215112 -1.6466526931
H 2.2473889516 4.6104290415 -1.4875258104
H -2.9382269569 -2.9565925661 2.1458429191
H -3.4408626338 -1.2516638833 1.9121563434
H -1.8353356446 -1.6263728925 2.6106786858
H -4.2360169689 1.2133678166 -1.4162051447
H -2.6979521795 0.9128845097 -2.2809897304
H -2.7004959127 1.8890574558 -0.7865331137
*
