! r2scan-3c def2/J RI DEFGRID2 scfconv6 printgap
%output
    printlevel normal
end
* xyz 0 1
C 2.3065470405 -2.890307709 1.903189449
C 1.38406465 -2.1208984902 0.9789774135
O 1.7463919284 -0.7289376058 0.9975256268
P 2.3341751759 0.0805975556 -0.2460553309
S 3.0309391714 -0.9961352245 -1.7153088772
O 3.4310752897 0.996505812 0.4161651173
C 3.1582821002 1.8749857996 1.5395910721
C 4.4037758737 2.700011244 1.7843682944
S 0.8145320409 1.5009965187 -0.7466982125
C 0.0430458751 0.5476003221 -2.0745762001
S -0.7021092652 -0.9980451295 -1.4908998622
P -2.0673795951 -0.1100754653 -0.1298834265
S -2.8788856654 1.577001619 -0.7208301247
O -1.2211672003 -0.052389207 1.2052458022
C -1.3936971892 0.992762591 2.1823817777
C -2.6767441102 0.7993749163 2.9621002575
O -3.0368003561 -1.3194939567 0.2106259485
C -3.9731459173 -1.8683364286 -0.7386369096
C -5.3148323305 -1.1664437886 -0.6536008249
H 3.3307179512 -2.8222370567 1.5430143371
H 2.2567664226 -2.4846873081 2.9095736367
H 2.0037976594 -3.9322280687 1.9193001282
H 0.3440488477 -2.1690613877 1.3103510052
H 1.4577630303 -2.4991817162 -0.0459417141
H 2.3026099603 2.5058368578 1.2824091459
H 2.9072657605 1.2550284915 2.4024445593
H 5.2445350471 2.0485293687 2.0042975348
H 4.639868928 3.2887678307 0.9027268886
H 4.2315309653 3.3641046942 2.6251431927
H 0.793799952 0.2689013558 -2.8133841192
H -0.7270358694 1.1873493927 -2.5046278549
H -0.5104185612 0.9105814503 2.8173679304
H -1.390795481 1.9590122025 1.6671047093
H -2.6935312155 -0.1850116793 3.4219188749
H -2.7525733437 1.5620489552 3.7305509721
H -3.5283270855 0.8872560058 2.2882247725
H -3.5515450363 -1.7935656707 -1.7452699972
H -4.056619325 -2.9200097244 -0.4582106355
H -5.7082245582 -1.2330854494 0.3568854377
H -5.2112088617 -0.1172318633 -0.9211801283
H -6.0091509867 -1.6392250489 -1.3406879144
*
