! pbe def2-sv(p) def2/J RI DEFGRID1 loosescf d4 GCP(DFT/SV(P)) printgap
%output
    printlevel normal
end
* xyz 0 1
C 4.3614011257 -2.3698214041 -0.7808841141
C 4.9604011499 -0.9847911312 -0.6440532164
O 4.1042819034 -0.0882099528 0.0849466978
P 2.7008532691 0.4013948136 -0.4757902892
S 2.6649060235 0.7744072129 -2.3979866252
O 2.4223760006 1.7098479932 0.3561855886
C 2.041884151 1.8019262874 1.7504230213
C 2.9575464599 1.0230026739 2.6688932555
S 1.3084814839 -1.0641945585 0.2000356343
C -0.0228410153 -0.6098482122 -0.9261341919
S -0.8514504638 0.9444210174 -0.4280805023
P -2.7443633359 0.1412863694 0.0631976211
S -4.0596160966 1.3751660758 0.8236653596
O -2.457540268 -1.1677619684 0.9274814707
C -2.4524802629 -1.1486704129 2.3648677181
C -1.2569550212 -0.3988006207 2.9155605549
O -3.0935879141 -0.4908784177 -1.3516137206
C -4.4496191261 -0.8087884286 -1.72836723
C -5.0187873082 -1.9416790226 -0.9003973417
H 5.0996565995 -3.0366491793 -1.2146637131
H 4.0579212159 -2.7498933853 0.1911070055
H 3.4916206978 -2.3365234695 -1.434955712
H 5.1560809793 -0.5515916095 -1.6300178597
H 5.8795211541 -0.9995087266 -0.0567043566
H 2.0860438854 2.8739824375 1.9477594536
H 1.0075799224 1.4596272154 1.8387823951
H 3.9883270027 1.336359173 2.5263346798
H 2.6637706028 1.2078975734 3.6975547318
H 2.8825476105 -0.0430544859 2.4638060931
H -0.7470968095 -1.4187218748 -0.9262020835
H 0.3978729187 -0.4453865853 -1.9190151155
H -3.3848826448 -0.6878747822 2.7065038043
H -2.4306551677 -2.2031566449 2.6422026531
H -0.333705006 -0.8250541123 2.5294132258
H -1.3201059456 0.6507173206 2.6263118962
H -1.2582754891 -0.4643772239 3.9986472584
H -5.0587413965 0.0938016726 -1.6176263385
H -4.3694487621 -1.0750562373 -2.7831979235
H -4.3613871124 -2.806216848 -0.9392114495
H -5.1265956884 -1.6240944968 0.1358334138
H -5.9955692696 -2.2127372629 -1.2886709113
*
