! r2scan-3c def2/J RI DEFGRID2 scfconv6 printgap
%output
    printlevel normal
end
%cpcm
    smd true
    smdsolvent "water"
end
* xyz 0 1
C 4.9907764986 -0.1112041867 -0.4936369506
C 4.4903017851 -1.3567888273 -1.2070056712
O 3.0635436417 -1.2855712879 -1.3921365421
C 2.2804047436 -1.9476192384 -0.5561804008
O 2.671992645 -2.6948877104 0.3102912852
C 0.812349336 -1.7273722803 -0.8784074114
C 0.518561811 -0.2448024479 -1.0755803856
H 1.1007734224 0.1327417677 -1.9236973831
C 0.9377154155 0.5617579448 0.1393934378
O 1.8860176146 0.2502578142 0.8214525006
O 0.2039937904 1.644620581 0.3076636877
C 0.5522148544 2.5387348551 1.3839098054
C 1.5959395355 3.5441959052 0.9295665505
S -1.2120284939 0.0622035926 -1.5464569294
P -2.1668332369 0.1308287668 0.3509724559
S -1.289669001 -0.7561831972 1.8665331518
O -2.5502577758 1.6304151959 0.6620248254
C -3.2614664338 2.451133874 -0.2890205233
O -3.6116321365 -0.4598102717 -0.0059572174
C -3.7973049197 -1.843977641 -0.3206485517
H 4.7970220134 0.7718017298 -1.0961999382
H 4.4760768708 -0.0052131302 0.4593544601
H 6.0573723216 -0.1992008641 -0.3162809075
H 4.719641931 -2.2561384228 -0.6288643459
H 4.9042536746 -1.435014167 -2.2133650361
H 0.2280969193 -2.1378612554 -0.0523415371
H 0.576125972 -2.2694045844 -1.7953383274
H -0.3886863352 3.0204260398 1.6514872504
H 0.9158326708 1.9384386137 2.2232383677
H 1.2409227555 4.0843695385 0.0563812383
H 1.7846451471 4.2463291934 1.7347384143
H 2.5240941528 3.0337779863 0.6827022827
H -3.3400218451 3.4275333486 0.181562364
H -4.247609182 2.0314086575 -0.4757779512
H -2.6969880927 2.5127188775 -1.2191543002
H -3.3037522123 -2.46916628 0.4251238577
H -3.3959326364 -2.0554742631 -1.31147308
H -4.8717582915 -2.0073649289 -0.2993590572
*
