! r2scan-3c def2/J RI DEFGRID2 scfconv6 printgap
%output
    printlevel normal
end
%cpcm
    smd true
    smdsolvent "water"
end
* xyz 0 1
C 5.9109813739 -1.9590130841 -0.7873885759
C 4.8518896423 -0.996727474 -1.2876393374
O 3.5596374597 -1.5455103871 -0.961499667
C 2.4949042294 -0.9104779823 -1.4003632213
O 2.5283008612 0.1025837235 -2.0640769195
C 1.2153048196 -1.6160993589 -0.9872134568
C 0.2046872526 -0.5788035005 -0.5193979244
H 0.1224304779 0.2185101205 -1.2714705564
C 0.5900208519 0.0948700708 0.7818400971
O -0.2396243174 0.4362061368 1.6009357308
O 1.8801085602 0.2634666722 0.8997818027
C 2.3708057915 1.008217018 2.0373387612
C 2.3504964872 2.4988955865 1.745282569
S -1.451687755 -1.3024484636 -0.2954600331
P -2.501734278 0.4752070935 0.222550768
S -1.7677712095 2.1755524686 -0.4144022467
O -3.9345909343 0.1498023923 -0.4345411299
C -4.1180609032 0.1258154459 -1.8519555205
O -2.9266852961 0.4515056719 1.7421871175
C -3.5862281168 -0.6827348484 2.3387713492
H 6.8940294091 -1.5590808741 -1.0123016232
H 5.8151567559 -2.0936681892 0.2856383865
H 5.797071451 -2.9236020996 -1.2726793457
H 4.9047134244 -0.8569902168 -2.3717744436
H 4.9344947104 -0.0145620281 -0.8121341466
H 1.4354112289 -2.3441322832 -0.2082397806
H 0.8107956907 -2.1348446251 -1.8583636493
H 1.7462161871 0.7712492982 2.9027313593
H 3.386295894 0.6401093621 2.1825139499
H 2.9263908571 2.7144257608 0.8489813743
H 1.3274400258 2.8369770448 1.5882279466
H 2.7750668239 3.0373232246 2.5858989631
H -3.6794488151 1.0183292021 -2.3017713574
H -5.1935149866 0.11168401 -2.008655734
H -3.6559955724 -0.7683103915 -2.270505728
H -3.633016324 -0.4539200355 3.4002346196
H -3.0032793902 -1.5874902878 2.1650906088
H -4.5839551293 -0.792722559 1.9176856433
*
