! pbe def2-sv(p) def2/J RI DEFGRID1 loosescf d4 GCP(DFT/SV(P)) printgap
%output
    printlevel normal
end
* xyz 0 1
C 1.8047997421 -0.9322780898 -2.7586877519
C 3.189601645 -0.676452493 -2.2001249748
O 3.2859975126 -1.0215247194 -0.8070116539
P 2.5918792493 -0.1744998335 0.34447289
S 2.7058084609 1.7713620942 0.1815061056
O 3.3305741537 -0.6665862294 1.6495986492
C 3.4485437962 -2.0569424376 2.0453104986
C 4.7345933438 -2.6657346989 1.5258289251
S 0.648056222 -1.0180272017 0.5106231397
C -0.0462190416 0.3244718306 1.5351474947
S -1.8368442854 0.2235322722 1.6301092011
P -2.3138033526 0.8949067129 -0.3531753352
S -0.8366773901 1.6067556508 -1.4188892268
O -3.4348957645 1.9718114704 -0.1182350311
C -4.6117928009 1.7575361663 0.7023487083
C -5.767256314 1.2293090758 -0.1221519979
O -3.1187765937 -0.2980883114 -1.029861508
C -2.4907792394 -1.4465269469 -1.630444822
C -2.4088786171 -2.6019416475 -0.6520469361
H 1.474007882 -1.9354438377 -2.5010133256
H 1.0975299729 -0.2069817055 -2.3576719183
H 1.8291045187 -0.8254946804 -3.8383592165
H 3.4652895567 0.3760935224 -2.3183172663
H 3.937913852 -1.3120259629 -2.6762668786
H 3.4380890956 -2.0252764334 3.1362995661
H 2.574686686 -2.6037192225 1.6793503535
H 4.8314689347 -3.6736701677 1.9171688132
H 4.7258347813 -2.7011126151 0.4400935752
H 5.5846761499 -2.0716412333 1.8501141155
H 0.2524732655 1.2765174952 1.0891508499
H 0.3233812275 0.2325362603 2.5540451131
H -4.35410498 1.0712595336 1.5139045032
H -4.8329750318 2.7452796558 1.1106928619
H -5.9719604199 1.9029766569 -0.9497884207
H -5.5311543316 0.2469014756 -0.5204259448
H -6.6475982836 1.1593603258 0.5091442583
H -3.1314655268 -1.6914915765 -2.4795556427
H -1.4993735218 -1.1598731773 -1.9947912815
H -3.3902465367 -2.8061725927 -0.2336899655
H -2.0516664401 -3.4823405216 -1.1757569334
H -1.7186454482 -2.3728061155 0.1569677193
*
