! wb97x-v def2-tzvp def2/J RIJCOSX DEFGRID2 scfconv7 GCP(DFT/TZ) printgap
%output
    printlevel normal
end
* xyz 0 1
C -2.525477289756628 0.7856918461094081 -0.0001298624630913357
C -1.221431044172533 0.032478903703561934 -7.987764453615192e-05
C -1.243057255206811 -1.3667176749876484 3.539961500177337e-06
C -0.06372982222580147 -2.1024675528359547 9.662257929347485e-05
C 1.1590157107495722 -1.4396176108963052 6.320471965802087e-05
C 1.2133830808105324 -0.04378559736228641 -3.8125636709681945e-05
C 0.01720894968762802 0.7020869165330583 -8.823018453512979e-05
C 0.09813928296155036 2.2040118360629593 0.0001841341752661107
C 2.544167792745697 0.654348927042685 -0.00014173274747689206
H -2.621351583211811 1.4302066602252594 -0.8809938621247225
H -3.3673808048337897 0.08915556293460888 9.270257310834296e-06
H -2.6212650312090866 1.4305098668020173 0.8805179164731102
H -2.200846296114502 -1.8801679526030661 2.729681958410918e-05
H -0.0973595713331772 -3.1879683560946477 0.00020605256185240246
H 2.0860751294031967 -2.0068265740493207 0.00014232655164506385
H 0.647505882984781 2.5674591372169258 -0.8764216650247875
H -0.8847175227319892 2.674412512184303 -0.0022414200680237802
H 0.6430252950556129 2.5672791658442713 0.8796989470864034
H 3.362547311028735 -0.06951682830492871 0.0008903717896805617
H 2.6587530090338554 1.299013365878574 -0.8795136531772316
H 2.658030595298707 1.3007994334004656 0.8779969477323061
*
