  23
        -30.28764633
 C         -3.2824983694        1.3236440396       -0.2188665282
 C         -1.9911391471        0.7056557497        0.3034731103
 C         -1.9170478144       -0.7879386683       -0.0067610277
 C         -0.6488461730       -1.4303152744        0.5668003770
 C          0.5754357420       -0.8679931342       -0.1083491849
 O          0.8064683736       -0.9450102056       -1.2971692859
 O          1.3838515475       -0.2745069527        0.7611123091
 C          2.5881422205        0.3389907387        0.2714405173
 C          2.3275222295        1.7642149506       -0.1918076162
 H         -3.3159372923        2.3861039277        0.0076266892
 H         -3.3540642788        1.1989085832       -1.2968973773
 H         -4.1444930763        0.8454037067        0.2398994001
 H         -1.1359358582        1.2106485473       -0.1527238418
 H         -1.9263128755        0.8541704069        1.3833796561
 H         -1.9266672807       -0.9367076101       -1.0886131274
 H         -2.7881349795       -1.2903788354        0.4155981966
 H         -0.6705605898       -2.5038763970        0.3749769924
 H         -0.5713812187       -1.2499990130        1.6381219805
 H          3.2729291671        0.3159296819        1.1195114479
 H          2.9791323203       -0.2677660275       -0.5509864816
 H          1.8800358383        2.3429542681        0.6118544038
 H          3.2649429198        2.2242087233       -0.4866788055
 H          1.6532384971        1.7608982622       -1.0456485572
