! pbe def2-sv(p) def2/J RI DEFGRID1 loosescf d4 GCP(DFT/SV(P)) printgap
%output
    printlevel normal
end
* xyz 0 1
C 4.9492148564 0.4725318296 -1.6578851207
C 4.6476217787 -0.7467457052 -0.8039724992
O 3.2664408213 -1.1135401515 -0.9931698781
C 2.4890398834 -1.275692472 0.0547588765
O 2.8521777319 -1.2170179199 1.2078480466
C 1.0545034809 -1.5449064557 -0.3704756977
C 0.5027210917 -0.3353065176 -1.1338926791
H 1.1015722692 -0.1572928681 -2.0296295421
C 0.5112150294 0.8910013884 -0.2475515775
O -0.5171147071 1.3927578288 0.1723428561
O 1.7086814781 1.3130552043 0.0219949823
C 1.8718707095 2.3903793851 0.9777999456
C 3.2254360943 2.23151997 1.6418274537
S -1.2076835562 -0.6022754498 -1.7044468305
P -2.3315971692 -0.231646185 0.0481078352
S -1.7581172917 -0.6566591433 1.8884368771
O -3.2151493703 1.0934268487 -0.1027396715
C -3.0669421242 2.2999019046 0.6440806714
O -3.4279797767 -1.290639075 -0.4673845001
C -4.6056767233 -1.5754648049 0.2897231824
H 5.9825577406 0.7679126365 -1.509484611
H 4.7901326858 0.2415579932 -2.7068228774
H 4.295760978 1.2941408527 -1.3774074382
H 4.8129917998 -0.551250896 0.2588416334
H 5.2469096838 -1.6054300939 -1.1151849773
H 0.4579660397 -1.745070551 0.5222572504
H 1.0287583135 -2.4122919559 -1.029831624
H 1.7963337543 3.3315079734 0.4270359823
H 1.0557328094 2.3299090255 1.7030299201
H 3.3015093005 1.244157843 2.0913929881
H 4.0230474468 2.3511137913 0.9151838145
H 3.3316769472 2.9837927022 2.4160876662
H -2.6203277921 2.0876850127 1.6165696861
H -4.0711050311 2.7009370942 0.7645446465
H -2.4353959875 2.9937781038 0.0933795073
H -4.3473900678 -1.735063314 1.3390891479
H -5.0201719863 -2.4837404137 -0.140424639
H -5.3141587129 -0.7520213744 0.2046151887
*
