! pbe def2-sv(p) def2/J RI DEFGRID1 loosescf d4 GCP(DFT/SV(P)) printgap
%output
    printlevel normal
end
* xyz 0 1
C 5.0561047205 -1.314581266 -1.1045569771
C 4.7426985389 0.0489647524 -1.6805230504
O 3.3175573992 0.2709985444 -1.8443604629
P 2.2594437587 0.3256182221 -0.686527039
S 0.65211675 1.3040775193 -1.2380676872
O 3.0853358412 1.0257568121 0.4829379187
C 2.496884886 1.4554646522 1.7233233733
C 2.7682614038 0.4494319179 2.8254082014
S 1.9571025909 -1.7094852222 -0.1285913088
C 0.3284549039 -1.6740112166 0.6580259111
S -1.0815922357 -1.7318598391 -0.511441116
P -2.1749094715 -0.0440393624 0.1335378367
S -1.4451383991 0.9550626304 1.6589676205
O -3.6226097391 -0.644938281 0.4201299151
C -3.8779706554 -1.4548844037 1.5836694686
C -5.3762395014 -1.6522584908 1.6941284863
O -2.4652927189 0.7149747557 -1.2185253987
C -2.7200342382 2.1313974362 -1.2748611023
C -4.0510654287 2.4834480295 -0.645325684
H 6.1310473972 -1.4657146015 -1.1212067395
H 4.7042630535 -1.3841817033 -0.0776165988
H 4.5759474107 -2.0939797024 -1.6908470177
H 5.1237351299 0.1547947787 -2.69737836
H 5.1392961905 0.84506061 -1.0483725851
H 2.9721817849 2.4138485688 1.9415008838
H 1.4231874659 1.6206809572 1.5817057456
H 2.3295229174 0.8147661646 3.7483548309
H 2.3297736209 -0.516037569 2.5856504187
H 3.8389871267 0.3246592367 2.9587367565
H 0.2146010473 -0.7799024323 1.2771019309
H 0.2905363131 -2.5788324194 1.2591521079
H -3.3585096747 -2.4097401819 1.4582873227
H -3.4732558188 -0.9391511614 2.4611863188
H -5.8722214366 -0.6936691349 1.8162195341
H -5.7527285428 -2.1305498065 0.7946019371
H -5.5902172755 -2.2793609475 2.55322755
H -1.8936738459 2.652042276 -0.7793135456
H -2.6962280038 2.3566858991 -2.3418679334
H -4.8468722699 1.9078511884 -1.1107081996
H -4.027042921 2.2553132952 0.4198594862
H -4.2419305812 3.5438556207 -0.7763486857
*
