! pbe def2-sv(p) def2/J RI DEFGRID1 loosescf d4 GCP(DFT/SV(P)) printgap
%output
    printlevel normal
end
* xyz 0 1
C 2.5810570178 -2.7140129627 -2.1009229615
C 3.2425337864 -1.380377536 -1.8138788656
O 2.9661435419 -0.9602453835 -0.4623475415
P 2.104086422 0.3030318362 -0.0572467817
S 1.3060582826 1.2377066181 -1.5920710704
O 3.1970792163 1.1407289566 0.7339024137
C 2.9275884653 2.0804583189 1.7880437554
C 1.9660995281 3.173932428 1.3692723994
S 0.9373292027 -0.4782798121 1.5383105046
C 0.2268129445 -1.9234280223 0.7036507787
S -0.7073157731 -1.5264397752 -0.8045095807
P -2.0892525725 -0.1445064885 -0.0022564956
S -1.6192341942 1.6955699284 0.507020106
O -2.6700849404 -1.0417521345 1.1630468293
C -3.1491898789 -0.5304916153 2.426291358
C -2.2820164602 -1.060076292 3.5514479814
O -3.2691388444 -0.2027674393 -1.068577989
C -3.3423423435 0.6866786728 -2.1938613061
C -2.2531647541 0.4031494972 -3.2087418635
H 1.4971198178 -2.6130020707 -2.0788447008
H 2.8814699243 -3.0470852151 -3.0890115022
H 2.8912666294 -3.453126739 -1.3673650782
H 2.887199419 -0.608872556 -2.5052420061
H 4.3296951316 -1.4537548459 -1.8745387219
H 2.5355711704 1.5296768355 2.6485447904
H 3.9124375338 2.4864314395 2.026345794
H 2.325950049 3.6724633397 0.4720331519
H 0.980500701 2.7575304555 1.1580209025
H 1.870931197 3.8996941007 2.1703973422
H -0.4342554663 -2.3948046299 1.427634771
H 1.0250043069 -2.5977090669 0.4010542214
H -3.1294506656 0.5637330108 2.3984337453
H -4.1799194362 -0.8773999123 2.5141817301
H -1.2590339121 -0.7054183222 3.4356531058
H -2.6747957348 -0.7031451882 4.4978248746
H -2.2860657962 -2.1464620007 3.5501431626
H -4.336123269 0.5073335559 -2.6064176176
H -3.2698205593 1.7168348732 -1.8290871229
H -1.2753218254 0.6468610965 -2.7905170129
H -2.262167881 -0.6472269518 -3.4895727552
H -2.411926547 1.0150144054 -4.0907970631
*
