! r2scan-3c def2/J RI DEFGRID2 scfconv6 printgap
%output
    printlevel normal
end
* xyz 0 1
C 3.1593127669 2.4185513074 2.2498204583
C 1.776409858 1.821135754 2.1004469007
O 1.6001587272 1.2026982628 0.8069445085
P 2.3511953118 -0.1335456757 0.404222332
S 2.6988254625 -1.3975507386 1.8661607039
O 3.6396932786 0.4265262982 -0.3357136586
C 4.7877590257 -0.3952181931 -0.6093406907
C 4.4874702533 -1.4764159435 -1.6272803047
S 1.0857307957 -0.7930879527 -1.1593586534
C -0.0595149275 -1.7114789258 -0.0946370697
S -1.1429143512 -0.6296222853 0.8627597271
P -2.3750784993 -0.0071701269 -0.7701795691
S -2.6355508426 -1.3554063194 -2.1640020699
O -1.788689109 1.3217077224 -1.3681373228
C -1.2015467359 2.4467090077 -0.6676122378
C -2.0196987532 2.9067823758 0.5190595288
O -3.7073645454 0.4719864645 -0.0528997765
C -4.6440242426 -0.4815269111 0.4878378289
C -5.9795138809 0.2161127176 0.6481846258
H 3.217779236 2.9612714996 3.1880208529
H 3.9068058092 1.6261673155 2.2526759948
H 3.3680635013 3.0947308727 1.424956476
H 0.9977455019 2.5840172562 2.1355136287
H 1.5915363958 1.0663842371 2.8711763005
H 5.5332954454 0.3102975126 -0.9782839361
H 5.1266632331 -0.8397336908 0.3319857187
H 3.7836657589 -2.196183454 -1.2104247711
H 4.0514224119 -1.0425543566 -2.5238935256
H 5.4060239084 -1.9932590952 -1.8861618665
H 0.5068079838 -2.3094110405 0.6197556129
H -0.6655939223 -2.3358890306 -0.752052969
H -0.1911609566 2.1598270773 -0.3650201943
H -1.1463568789 3.2145426897 -1.4411473004
H -2.0318355006 2.1404144512 1.2922393098
H -1.5767859916 3.8122893891 0.9231685001
H -3.0417109929 3.113788921 0.2125981804
H -4.7157628526 -1.3303572688 -0.2006704914
H -4.2563416968 -0.831386268 1.4482933633
H -6.3328232017 0.5693941924 -0.316489226
H -6.6994383418 -0.4845536077 1.058043767
H -5.8791943119 1.0635503118 1.3197623785
*
