! r2scan-3c def2/J RI DEFGRID2 scfconv6 printgap
%output
    printlevel normal
end
%cpcm
    smd true
    smdsolvent "water"
end
* xyz 0 1
C 0.6172590879 1.6958017732 -0.0268874657
C 1.3967492954 0.3997032519 -0.2603882407
H 1.5913587005 0.2779606844 -1.3378752225
C 0.5450411591 -0.790064708 0.2067502318
H 0.3627268883 -0.6862784076 1.284041447
C -0.8029373564 -0.7461181277 -0.5343041841
H -0.619201377 -0.8415360828 -1.6113415912
C -1.4645484948 0.6254351385 -0.2799051536
H -2.3643862794 0.7170881011 -0.9082958115
O -0.6393753136 1.6715365466 -0.6873632241
O -1.7983905267 0.7720790076 1.0717363769
O -1.7029086554 -1.7276622366 -0.0749210295
O 1.2677768501 -1.971806605 -0.0694199565
O 2.6057809766 0.4790644801 0.4486340215
H 1.1546568043 2.5453955879 -0.4454444277
H 0.480051882 1.8436392514 1.0497670142
H -2.3287245762 0.0032164605 1.3345982647
H -1.5073061682 -2.5768014852 -0.4943277223
H 0.9403624895 -2.6935543864 0.4844091626
H 3.0561476568 -0.376971198 0.3750116165
*
