! pbe def2-sv(p) def2/J RI DEFGRID1 loosescf d4 GCP(DFT/SV(P)) printgap
%output
    printlevel normal
end
* xyz 0 1
C 5.3824229758 -0.0485170284 -1.573871612
C 5.0104040365 -0.4764973091 -0.1697949097
O 3.6391356718 -0.918774912 -0.0711285649
P 2.3735041116 -0.0297470886 -0.4080761415
S 1.8999728077 0.1883286859 -2.3039472481
O 2.7370160715 1.3130599422 0.3625574108
C 1.9850848472 2.5342477243 0.2654504128
C 1.1316409398 2.7310830597 1.5021886023
S 0.979430396 -1.0810081009 0.7768680052
C -0.0883518238 -1.7788785919 -0.5353051338
S -1.7994551451 -1.9082502682 0.0035528877
P -2.1712054901 0.1710937819 0.3104228204
S -1.3216768123 1.4133116772 -0.9435555793
O -1.7456204472 0.4860244809 1.7947374471
C -1.8652670253 -0.3938732402 2.939830939
C -3.2743114451 -0.905015474 3.1437890656
O -3.7551574298 0.2762361104 0.3713895601
C -4.5684834076 0.478074923 -0.7960020792
C -4.5324209865 -0.7093518427 -1.7366920381
H 4.8028113644 0.8261364452 -1.8666963069
H 6.438948267 0.1980604899 -1.608291796
H 5.1750206382 -0.8482105623 -2.2811146211
H 5.1584340497 0.3397957158 0.5404370791
H 5.5792852811 -1.3528081525 0.1455022827
H 2.7355834493 3.3221527373 0.1752850228
H 1.3710848075 2.5129237214 -0.6413457668
H 1.7475449657 2.6635825819 2.3944518535
H 0.6622764922 3.7084877157 1.4555649532
H 0.3513132428 1.9741780264 1.5519076136
H 0.2397726764 -2.7893586958 -0.7655081956
H -0.016398853 -1.1289341441 -1.4128320279
H -1.1585109347 -1.2181206404 2.8054948554
H -1.5401271974 0.2359605851 3.7690995512
H -3.9713542477 -0.0732861223 3.2015295452
H -3.5647731865 -1.5518396447 2.3184978445
H -3.3128608636 -1.4726019845 4.0683745374
H -5.5681839727 0.6396560654 -0.3903585455
H -4.2238788499 1.3831152251 -1.3065317916
H -5.2632150174 -0.5634863779 -2.5257329807
H -3.5447816255 -0.7994721424 -2.1866831151
H -4.7581621043 -1.626579659 -1.1989984486
*
