! r2scan-3c def2/J RI DEFGRID2 scfconv6 printgap
%output
    printlevel normal
end
* xyz 0 1
C -0.6500854723 -0.998545715 -0.3844351824
C 0.6495787027 -0.9981374154 0.3845862456
Cl 1.6661829231 0.4182087598 -0.0657506155
Cl -1.665993411 0.4184452328 0.0656760019
H -1.2293343732 -1.886709718 -0.1378620001
H -0.4828801068 -0.9318619717 -1.4576996289
H 0.4824446424 -0.9305768403 1.4578085538
H 1.2291427322 -1.8863097236 0.1385774183
*
