! pbe def2-sv(p) def2/J RI DEFGRID1 loosescf d4 GCP(DFT/SV(P)) printgap
%output
    printlevel normal
end
* xyz 0 1
C 4.4366970385 0.6894962631 -2.1555708677
C 3.1791779827 -0.1141125154 -2.410434247
O 2.7326188152 -0.7936941822 -1.2184860978
P 2.1132208986 -0.0244782506 0.0160145462
S 1.197763953 1.6658118956 -0.4108277484
O 3.3686184651 0.1970232234 0.9653818151
C 3.3398896241 1.0972250193 2.0849839405
C 2.400401543 0.6164505499 3.1722518607
S 1.1530997905 -1.6630328922 0.9431585746
C 0.1766689118 -2.3180777746 -0.452330472
S -0.575432481 -1.0535021649 -1.5096312852
P -1.978640496 -0.2191319538 -0.1572385805
S -1.4822364001 0.416094876 1.6332515545
O -2.9829862095 -1.4432263996 -0.153678661
C -3.9945064579 -1.6113690442 0.8603354669
C -5.1096287037 -0.5986432283 0.709206664
O -2.7040228762 0.8371680322 -1.0918312654
C -2.3926866461 2.2442183304 -1.147625794
C -3.340892386 3.0337166124 -0.2662435334
H 4.7954756764 1.1047368522 -3.0920372383
H 4.219985942 1.5047686741 -1.466242714
H 5.2047529775 0.0563206663 -1.7194314681
H 3.3490623293 -0.9219734362 -3.1230314114
H 2.3690973201 0.5312789062 -2.7652834315
H 4.3751855142 1.1241177668 2.427181182
H 3.0374424236 2.087275895 1.7274093967
H 2.6447519737 -0.4029393875 3.4608911441
H 2.4812385805 1.2676805847 4.0365393145
H 1.3694926496 0.6386299433 2.8149719186
H -0.5973922082 -2.9451594866 -0.0144723041
H 0.8311621804 -2.8958485491 -1.1010542407
H -4.3495185301 -2.6317146535 0.7094457677
H -3.5195922517 -1.5196708075 1.84266146
H -5.5088214712 -0.6287510298 -0.3012168013
H -5.899547565 -0.823042047 1.4190920769
H -4.7276563081 0.4014350846 0.9076522995
H -1.354505154 2.4068018218 -0.845916619
H -2.5085213382 2.5102907102 -2.1997105175
H -3.1943648768 2.7619239554 0.7772704904
H -3.1342547856 4.0924271109 -0.3845398785
H -4.3708112735 2.8324342644 -0.5482587126
*
