! pbe def2-sv(p) def2/J RI DEFGRID1 loosescf d4 GCP(DFT/SV(P)) printgap
%output
    printlevel normal
end
* xyz 0 1
C 4.2431046873 -2.3480216699 -0.5516952132
C 4.1663595067 -0.9075728969 -1.0207751143
O 3.4937913019 -0.0824773767 -0.0574528537
P 1.9467860131 0.3019772485 -0.1208913979
S 1.3313603167 0.6621831345 -1.9476483602
O 1.9004539481 1.4396163268 0.9691023992
C 1.9926256395 2.8395492433 0.6391989476
C 3.3458790501 3.1977683668 0.0628951526
S 0.9573658263 -1.2000217578 1.0052165262
C 0.2974467307 -2.2218417944 -0.3381455009
S -1.2198403605 -1.6040213476 -1.1651861991
P -2.0294214739 -0.2564542637 0.2320235132
S -1.2482147181 1.5228461868 0.5521121436
O -2.1473281949 -1.2124573244 1.4860004931
C -2.2396935767 -0.7167134896 2.8362631602
C -3.5837292809 -0.0715912111 3.1000401983
O -3.537324684 -0.1614595301 -0.2645290089
C -3.9853326479 0.8285153031 -1.20375156
C -3.404184818 0.6024715329 -2.5848652784
H 4.8257466755 -2.9233978823 -1.2639660409
H 4.719997468 -2.3936334264 0.423485959
H 3.2494800026 -2.7828973619 -0.4710122714
H 3.6483958436 -0.8210267212 -1.9825520615
H 5.1637594074 -0.4725431598 -1.1083804419
H 1.1859059913 3.0824870136 -0.0603475936
H 1.8058996478 3.3405003835 1.5901841886
H 3.3993792429 4.2718249637 -0.0844482842
H 4.1355736865 2.8822949399 0.7398308438
H 3.4823176022 2.7005602793 -0.8970085974
H 0.0629334209 -3.184289861 0.1103812991
H 1.0349361278 -2.3230845327 -1.1334712228
H -2.0828764893 -1.6038366667 3.4509397184
H -1.4249664282 -0.0034132669 3.001500517
H -3.653317761 0.2035237847 4.1476848908
H -3.6881105727 0.8249727575 2.4898393017
H -4.3852738123 -0.7613871268 2.8498698325
H -5.0709457114 0.7229731102 -1.1994602056
H -3.7038379891 1.8174869541 -0.8262583656
H -3.6070177775 -0.411750327 -2.9196832437
H -3.8410647731 1.3097580033 -3.2824992564
H -2.3237818428 0.7514993433 -2.5642366339
*
