! r2scan-3c def2/J RI DEFGRID2 scfconv6 printgap
%output
    printlevel normal
end
* xyz 0 1
C 5.1336807089 -0.0818493446 -1.4506940583
C 4.4833443267 1.0319377133 -0.6543968859
O 3.5482654483 0.5156277093 0.3117614011
P 2.0099848197 0.2926759417 -0.0131286418
S 1.1346578877 1.782359527 -0.9313540616
O 1.3906709165 0.0201732088 1.4079463674
C 1.8229966963 -1.0406586521 2.2983915361
C 2.8553038319 -0.5331063845 3.2828990027
S 1.9693437846 -1.5632498163 -1.0489156107
C 0.2188710789 -1.5658935709 -1.4870172606
S -0.8751414309 -1.8036658931 -0.0442483111
P -2.0087170305 -0.0329934182 -0.1038452402
S -2.2460940065 0.7988501787 -1.8675997385
O -1.3670876867 0.8293493337 1.0546104183
C -1.5976335911 2.2461412839 1.1839762796
C -3.0445583807 2.5573784652 1.4980893136
O -3.363799061 -0.5002679862 0.5845538933
C -4.3463795539 -1.2710668584 -0.1348763936
C -5.6578900826 -1.1767754932 0.6182671954
H 5.5863867318 -0.8056312387 -0.77911511
H 4.399160618 -0.5913612761 -2.0697910681
H 5.9010478819 0.3434709112 -2.0895388007
H 3.9592010821 1.7372419364 -1.3075527196
H 5.2187218853 1.5713299372 -0.0547839389
H 0.9065545269 -1.356257906 2.8013272845
H 2.2168776788 -1.8672264145 1.7002626856
H 3.754504563 -0.220662001 2.7591626573
H 2.4594163238 0.3138776576 3.8365487304
H 3.1020955578 -1.3310191241 3.9763286829
H 0.0765619304 -2.4092328596 -2.1576918667
H -0.0474184483 -0.624290712 -1.9758146551
H -0.9268145647 2.5418695798 1.9921698543
H -1.2822463565 2.7342383052 0.2554305101
H -3.1490973426 3.621499601 1.6854000952
H -3.6719447804 2.2835123565 0.6504607978
H -3.3670597387 1.9980021772 2.3723820283
H -4.4327187071 -0.8648193813 -1.1484664267
H -3.9928958246 -2.3041547951 -0.1929984531
H -5.5284147424 -1.5432794251 1.6323248627
H -5.9956433534 -0.1450187593 0.6567215207
H -6.403447488 -1.7787053784 0.1093926488
*
