! pbe def2-sv(p) def2/J RI DEFGRID1 loosescf d4 GCP(DFT/SV(P)) printgap
%output
    printlevel normal
end
* xyz 0 1
C 3.554804625 -2.9472436982 0.5218527694
C 2.9530590762 -1.6190342788 0.9510353735
O 2.6939140316 -0.7757083565 -0.1876293469
C 1.5960599799 -0.9692610792 -0.8861620811
O 0.7460541645 -1.799242621 -0.6318496106
C 1.4957270765 -0.0078654132 -2.0532578433
C 0.2636111909 0.8895238525 -1.9004269837
H 0.1646995097 1.5238922144 -2.7855947756
C 0.347040276 1.7759257319 -0.6731106498
O -0.5789914304 1.8872882678 0.1106712201
O 1.492330472 2.3845518341 -0.5774042996
C 1.7601233476 3.1923173817 0.5911432177
C 2.367073103 2.3366436034 1.6902490661
S -1.3018927453 -0.0495669993 -1.8197330195
P -1.6969321054 -0.3141102687 0.2558350803
S -0.4657933826 -0.4392008171 1.7916469981
O -2.9803078637 0.5917814301 0.5113322536
C -3.0611732127 1.6699571539 1.4418138833
O -2.5636903824 -1.6586830259 0.1195475432
C -1.9947956295 -2.9514481923 -0.079173686
H 4.4562331214 -2.7786168761 -0.0609503677
H 3.8005876081 -3.5277305165 1.4047484653
H 2.8407076282 -3.5061341966 -0.0787803863
H 3.6504961442 -1.043658003 1.5594852038
H 2.0174152962 -1.765888202 1.4986066472
H 1.3852557214 -0.5907897583 -2.9678644162
H 2.394490814 0.6061965254 -2.0933618123
H 2.4613606129 3.9484073355 0.2386065853
H 0.8272761102 3.6541068585 0.9233795427
H 2.6071490004 2.9629277029 2.5426695833
H 1.6620031496 1.5687386603 2.0066682449
H 3.2711062244 1.8535693173 1.330369958
H -4.057951935 1.6216159101 1.8746180576
H -2.9111956599 2.6103747654 0.9140343188
H -2.3024443352 1.5598922513 2.219167829
H -1.5838896006 -3.0346875088 -1.0851140064
H -2.8120688102 -3.6536370731 0.0653982498
H -1.2006562126 -3.1293211512 0.6474855804
*
