! pbe def2-sv(p) def2/J RI DEFGRID1 loosescf d4 GCP(DFT/SV(P)) printgap
%output
    printlevel normal
end
* xyz 0 1
C 2.2942513797 1.8254699689 -1.3848048442
C 2.4227733186 0.3349195909 -1.6210459423
O 2.9654104352 -0.363986832 -0.4900524648
P 2.3172862629 -0.4470223179 0.9627756223
S 2.3950667929 1.1265325487 2.1188313309
O 3.1535050634 -1.6130077979 1.6118311253
C 3.2833710565 -2.9341541053 1.0309208759
C 4.5980335313 -3.0662329485 0.2899272587
S 0.381383086 -1.293449621 0.6219318458
C -0.6222115134 -0.1205930136 1.5643350426
S -1.0388638198 1.3975100007 0.6588937419
P -2.1255550269 0.5735992874 -0.9653757067
S -1.1939878018 -0.2379332668 -2.4768447161
O -2.9707048755 1.8080465944 -1.4819731382
C -3.8391981882 2.6019110469 -0.6355962346
C -3.2143649724 3.9554859158 -0.3633855168
O -3.158290246 -0.3748766858 -0.1954422518
C -3.5168413501 -1.7041239697 -0.6267024929
C -2.9920155223 -2.7399862499 0.3470934307
H 1.9624607715 2.3016892227 -2.3022353457
H 1.5649169124 2.0292306456 -0.6015968824
H 3.2500521117 2.2457342583 -1.0811735339
H 3.1342574294 0.1233339421 -2.4212169697
H 1.4528048887 -0.1032626882 -1.8782931372
H 3.2381546539 -3.6131999479 1.884233709
H 2.4327428415 -3.1187126122 0.3683719943
H 4.6312422808 -2.3740762625 -0.5472463503
H 5.424518542 -2.8442313357 0.959345661
H 4.6972971851 -4.0819987686 -0.0798267843
H -0.0636929278 0.2123006902 2.4396474974
H -1.5369241763 -0.6369531634 1.8420274949
H -4.7650543395 2.702147413 -1.2045967684
H -4.0329370625 2.0572677641 0.2912150055
H -2.9905177754 4.4561374385 -1.3011525234
H -3.9102947711 4.5600031058 0.2096132962
H -2.2911925871 3.8429826305 0.2014661444
H -4.6076486325 -1.7109879929 -0.6648680274
H -3.112648815 -1.872166589 -1.6300352411
H -3.361594615 -2.5396863633 1.3491245498
H -3.3333350586 -3.7209248944 0.0329051852
H -1.9033074727 -2.7329603208 0.3556645641
*
