! r2scan-3c def2/J RI DEFGRID2 scfconv6 printgap
%output
    printlevel normal
end
%cpcm
    smd true
    smdsolvent "water"
end
* xyz 0 1
C 1.2385674825 -3.5792849647 -2.3159954328
C 2.5097599695 -2.7456516476 -2.3330665027
O 2.3517070774 -1.5821924068 -1.4996860666
C 2.7769732229 -1.6344246007 -0.252734178
O 3.3650410479 -2.571179843 0.2377212026
C 2.4700190966 -0.3541220422 0.5050060197
C 1.0812873737 0.1797131842 0.1736817457
H 0.9935974068 0.3607274043 -0.9029234481
C 0.7736891263 1.4802869223 0.8929385624
O -0.2391068558 1.6434837972 1.5421823158
O 1.7140112743 2.3676742651 0.7158037475
C 1.5098390303 3.6981264363 1.2400273532
C 0.7875748412 4.5601621674 0.2181100091
S -0.1997557567 -1.0386433274 0.6370548182
P -1.914299267 0.1077146059 0.1152030987
S -1.6741353607 1.5016928525 -1.2359456444
O -2.9017957404 -1.0636719833 -0.3765079932
C -2.6564271728 -1.7879404099 -1.5840571458
O -2.7143367461 0.5728182568 1.3934928877
C -2.9815072747 -0.3013430103 2.5059034796
H 1.364816907 -4.442382899 -2.9609289177
H 1.0301651888 -3.9181761836 -1.3034918103
H 0.3996163308 -2.9867405475 -2.6712766841
H 2.714047274 -2.3527324118 -3.3295200162
H 3.3627056401 -3.3238168496 -1.9673639232
H 3.2082872454 0.3996923654 0.2227258804
H 2.5660914824 -0.5661132061 1.5703935849
H 0.9343493544 3.6246332288 2.1664755994
H 2.5151045297 4.0689935354 1.4390044544
H 0.6572524695 5.5603672488 0.6172703706
H 1.3602121366 4.6109962605 -0.7035290484
H -0.1910960056 4.1383248245 -0.0055440598
H -1.8376362145 -2.4913741484 -1.4318349597
H -2.4133051266 -1.0965271616 -2.3928988
H -3.5800276514 -2.317478421 -1.8032887913
H -3.5380106561 -1.1746822619 2.170073143
H -3.5718425974 0.2952150972 3.1964099145
H -2.0426838999 -0.6053387161 2.9686701543
*
