! pbe def2-sv(p) def2/J RI DEFGRID1 loosescf d4 GCP(DFT/SV(P)) printgap
%output
    printlevel normal
end
* xyz 0 1
C 4.4902284603 0.4059644071 -2.4533089099
C 4.8535374478 -0.4727703946 -1.2739215094
O 3.7001372722 -1.1153089033 -0.7026776724
P 2.5577583893 -0.3029715328 0.0502230087
S 3.2179248737 1.1671087221 1.1747465521
O 1.7914720315 -1.4602367147 0.8084206129
C 2.22357812 -1.9515173842 2.1005168638
C 0.9993373955 -2.2079441308 2.9546406053
S 1.1391561837 0.1726286829 -1.4294145626
C 0.2330620626 1.3897568415 -0.4292210933
S -0.8053536916 0.6377201549 0.8474923899
P -2.5002027861 0.316231678 -0.4184800013
S -2.2131657724 -0.5925211625 -2.1245020372
O -3.0633464632 1.7745626108 -0.640971277
C -3.5047273293 2.6459665845 0.4308107536
C -4.9986023221 2.5200705958 0.6483825519
O -3.5638605139 -0.3523531514 0.5535361069
C -3.6705542442 -1.7803366162 0.6994971145
C -2.4406799283 -2.3765973141 1.3515105922
H 3.9081905576 -0.1568264988 -3.1791621808
H 3.8987882235 1.2561786164 -2.1152482209
H 5.397471359 0.7722844424 -2.9228892722
H 5.3418007348 0.1167982351 -0.4912466947
H 5.495602265 -1.3030302731 -1.5707647387
H 2.7921062793 -2.8665936114 1.922690001
H 2.8761678828 -1.2016288921 2.5608539035
H 0.3593054184 -2.9438950813 2.4773499953
H 1.3152581147 -2.5782854945 3.9244187105
H 0.4403692337 -1.2846057269 3.0854460146
H -0.3880076772 1.9583679769 -1.1188490965
H 0.9514684214 2.0316983039 0.082162824
H -2.9486062315 2.4002905602 1.3395764543
H -3.2376155438 3.6485100461 0.091410457
H -5.2471358161 1.5223473085 0.9989005217
H -5.310887975 3.2490425367 1.3896797667
H -5.5265134492 2.7065970424 -0.2828744825
H -4.5599466092 -1.9153245652 1.3165098705
H -3.8319686192 -2.2166159879 -0.291033585
H -2.2297979339 -1.8725927081 2.2914841061
H -2.6080144714 -3.4329806079 1.5362089289
H -1.5812672545 -2.2652694089 0.6904441581
*
