  17
  -22.4850472600000       0.150280147120458      !md1
 C         -2.8625361869        0.3976658291       -0.1064329876
 N         -1.8164418709       -0.5699232044        0.1261469135
 C         -0.4843485913       -0.2523006697        0.0353654219
 C          0.4640162516       -1.2824422379       -0.0097313129
 C          1.8134888388       -1.0027371861       -0.0385348323
 C          2.2603011636        0.3098756223       -0.0278063995
 C          1.3324057156        1.3363181380        0.0127659125
 C         -0.0226612142        1.0676102769        0.0426293072
 H         -2.7945211223        0.8583021731       -1.0992224628
 H         -2.8119492847        1.1851431799        0.6464185311
 H         -3.8233894708       -0.1012618006       -0.0147670884
 H         -2.0400539761       -1.5172698863       -0.1353468292
 H          0.1250225389       -2.3089645709       -0.0198628479
 H          2.5257814398       -1.8146925818       -0.0733227939
 H          3.3173406074        0.5278011282       -0.0529548044
 H          1.6673912150        2.3638601710        0.0181450649
 H         -0.7227632285        1.8871022160        0.0711711039
  17
  -22.4850472300000       0.150275376425495      !md3
 C         -2.7492329385       -0.8903155146        0.1148282880
 N         -1.8883117386        0.2450123422       -0.1183549953
 C         -0.5209969854        0.1641890031       -0.0329787429
 C          0.1634110138       -1.0551927542       -0.0429628543
 C          1.5446811957       -1.0838801425       -0.0184001191
 C          2.2798316614        0.0884326078        0.0193520734
 C          1.6113277857        1.3032096603        0.0326344348
 C          0.2336818284        1.3437378550        0.0092386350
 H         -2.5653340996       -1.6552438948       -0.6404818640
 H         -3.7825944693       -0.5658683015        0.0281113163
 H         -2.5983374798       -1.3343369098        1.1060022164
 H         -2.2727970508        1.1387574195        0.1446956247
 H         -0.3834852064       -1.9840054926       -0.0694409789
 H          2.0534257845       -2.0374501558       -0.0255575276
 H          3.3587192537        0.0579637040        0.0406078951
 H          2.1715497238        2.2267499675        0.0655770622
 H         -0.2788113469        2.2955559575        0.0215086832
  17
  -22.4850472300000       0.150275376425495      !md2
 C         -2.8627643966        0.3978113023       -0.1048911905
 N         -1.8163180260       -0.5699762325        0.1248739788
 C         -0.4843177785       -0.2523402934        0.0347510632
 C          0.4640893669       -1.2825243064       -0.0097029858
 C          1.8135126625       -1.0027496520       -0.0379190174
 C          2.2603215966        0.3099186619       -0.0273813095
 C          1.3324350484        1.3363328816        0.0125580638
 C         -0.0226625315        1.0675791453        0.0419564134
 H         -3.8234799537       -0.1015525033       -0.0133714455
 H         -2.7957800295        0.8601369974       -1.0969502219
 H         -2.8116039075        1.1840141173        0.6492677299
 H         -2.0402246551       -1.5173198345       -0.1362579408
 H          0.1250566010       -2.3090195571       -0.0200068688
 H          2.5259540041       -1.8145864369       -0.0728952715
 H          3.3173601959        0.5276636180       -0.0526352665
 H          1.6673241578        2.3639486046        0.0174743092
 H         -0.7228489675        1.8870195056        0.0700243574
  17
  -22.4850472200000       0.150273786227496      !gc
 C         -2.8621746854        0.3981485219        0.1207845227
 N         -1.8170133786       -0.5704812876       -0.1118195219
 C         -0.4844726545       -0.2523897376       -0.0308586086
 C          0.4640845095       -1.2823674111        0.0144684231
 C          1.8136977330       -1.0025932419        0.0333462986
 C          2.2604477732        0.3099397792        0.0124227433
 C          1.3323811243        1.3362180494       -0.0284052042
 C         -0.0228669608        1.0674645248       -0.0484153833
 H         -2.7886308651        0.8646579484        1.1103515485
 H         -3.8233135429       -0.1018755143        0.0378707265
 H         -2.8163230701        1.1810259581       -0.6370489277
 H         -2.0392290045       -1.5164728550        0.1556631072
 H          0.1249796331       -2.3087246753        0.0329501011
 H          2.5262603896       -1.8142977875        0.0687562131
 H          3.3175947987        0.5279242163        0.0299601980
 H          1.6675368467        2.3636757342       -0.0415493142
 H         -0.7232087961        1.8867299036       -0.0770228776
  17
  -22.4850471500000       0.150262655313785      !md4
 C         -2.7512380391       -0.8754026959       -0.1710345139
 N         -1.8865197433        0.2302876847        0.1671318638
 C         -0.5203821848        0.1595152476        0.0558275154
 C          0.1633836011       -1.0540187772       -0.0674903576
 C          1.5442093138       -1.0791126012       -0.1117748474
 C          2.2794887944        0.0914319078       -0.0382656268
 C          1.6116054433        1.3007726307        0.0806015290
 C          0.2343573563        1.3377452575        0.1247674773
 H         -2.5564635993       -1.7150150363        0.4971800306
 H         -2.6152856559       -1.2129925250       -1.2053722405
 H         -3.7830986018       -0.5630651878       -0.0352814058
 H         -2.2733810744        1.1460755257        0.0010501660
 H         -0.3837680775       -1.9809979677       -0.1293585275
 H          2.0525044562       -2.0280724524       -0.2080616311
 H          3.3580166537        0.0639916135       -0.0754928880
 H          2.1719288496        2.2232389445        0.1347528558
 H         -0.2777760980        2.2854774416        0.2158024806
  17
  -22.4850471300000       0.150259475204405      !md3
 C         -2.7488478715       -0.8900790364        0.1175228222
 N         -1.8882856322        0.2445846285       -0.1202703722
 C         -0.5210243922        0.1642413948       -0.0342015844
 C          0.1633557151       -1.0551813995       -0.0430587239
 C          1.5445809362       -1.0839127383       -0.0174218462
 C          2.2797218659        0.0884414592        0.0203323181
 C          1.6112343331        1.3032193366        0.0323306376
 C          0.2335892742        1.3438011190        0.0077541528
 H         -3.7823402845       -0.5650682742        0.0362615992
 H         -2.5930704639       -1.3336075793        1.1081375825
 H         -2.5694035081       -1.6556316432       -0.6381572612
 H         -2.2729032074        1.1392516069        0.1396823241
 H         -0.3836948747       -1.9839285883       -0.0696219958
 H          2.0533448909       -2.0374797462       -0.0236586886
 H          3.3585934625        0.0579379455        0.0425063465
 H          2.1714432280        2.2267655075        0.0651233653
 H         -0.2788803201        2.2956629719        0.0189427939
  17
  -22.4846468300000       9.837318328286651E-002 !input
 C         -2.7603818232       -0.8947059288       -0.0299924728
 N         -1.8804226063        0.2435482566        0.0250597814
 C         -0.5203629327        0.1685582071        0.0122104431
 C          0.1613980311       -1.0522500749       -0.0555469146
 C          1.5421381637       -1.0833485263       -0.0659292858
 C          2.2812366899        0.0862306930       -0.0098715043
 C          1.6158389821        1.3011469022        0.0574776060
 C          0.2385122628        1.3460380834        0.0685553195
 H         -3.7885968402       -0.5462031977       -0.0056441043
 H         -2.5971963687       -1.5605262461        0.8228025961
 H         -2.6074717232       -1.4671298239       -0.9498851165
 H         -2.2901777607        1.1590571470        0.0740045988
 H         -0.3900598840       -1.9777334433       -0.1001204036
 H          2.0488051785       -2.0367878994       -0.1187411526
 H          3.3603084101        0.0534983863       -0.0184598319
 H          2.1794748703        2.2223591303        0.1017622225
 H         -0.2708546461        2.2981945919        0.1212689187
