! r2scan-3c def2/J RI DEFGRID2 scfconv6 printgap
%output
    printlevel normal
end
%cpcm
    smd true
    smdsolvent "water"
end
* xyz 0 1
C 2.9013270871 -0.530576177 3.2227550921
C 1.5443049854 -0.7517858646 2.5901910971
O 1.3853003628 0.0370734515 1.3891523167
P 2.2115052005 -0.2777927325 0.0786510514
S 2.7409230878 -2.1478179597 -0.1992860033
O 3.4044278634 0.7615703019 0.193243919
C 4.5024126217 0.7707339719 -0.7410669231
C 5.6709766546 1.4732288068 -0.0793904165
S 0.976131456 0.5619559217 -1.4210891926
C -0.0531984623 -0.9124102068 -1.6619432153
S -1.13669347 -1.2519444079 -0.2581058288
P -2.4038160673 0.4485091778 -0.536831527
S -2.7938008413 0.879179451 -2.4019731087
O -1.7078837793 1.6391188603 0.2221536399
C -1.4344167684 1.6247050466 1.6451090315
C -2.4820829977 2.4224079639 2.3927646687
O -3.6623605589 0.1451859794 0.3828447454
C -4.7188446243 -0.750170995 -0.017646725
C -4.4918355946 -2.1475975115 0.5247122014
H 2.9539815241 -1.0706202616 4.1628299486
H 3.6807896684 -0.90093182 2.5577967774
H 3.0654993506 0.5287057642 3.4010501869
H 0.7341707529 -0.4132054773 3.2368693312
H 1.4007831179 -1.8059902398 2.3332217835
H 4.7500828034 -0.2643201431 -1.0002446437
H 4.17773751 1.2967958634 -1.6428603863
H 5.3811758907 2.4790294789 0.2103186208
H 5.9847732397 0.9276574045 0.805983046
H 6.4979708938 1.5246221099 -0.779859779
H 0.5870614849 -1.7858662767 -1.7874696998
H -0.6601091437 -0.7282285477 -2.5487273003
H -1.4041847082 0.5867726581 1.9878505741
H -0.4423347546 2.0712880384 1.7398355483
H -3.4576693633 1.9565883292 2.282251229
H -2.2175727313 2.4598441468 3.4448817064
H -2.529421545 3.433444399 1.9976965271
H -5.6244595609 -0.3071812605 0.4008250936
H -4.7863876435 -0.7489467788 -1.1101765726
H -3.591944132 -2.5844553958 0.0980602098
H -4.3861742083 -2.1157004381 1.6053664084
H -5.3436135006 -2.7686703027 0.2668508752
*
