  19
  -33.4231812500000       4.291506805515320E-002 !gc
 C         -3.8062518653       -0.7187831997        0.0011201090
 O         -2.3821481314       -0.8090818600        0.0008516766
 C         -1.7015979125        0.3407766515       -0.0003249782
 O         -2.2581873670        1.4267947665       -0.0014529965
 C         -0.2447759573        0.1536217521       -0.0003852443
 C          0.5771976989        1.2810410087        0.0004940809
 C          1.9483777245        1.1492431039        0.0008017125
 C          2.5260336594       -0.1207733134        0.0001469751
 C          1.7049936137       -1.2518568436       -0.0009044982
 C          0.3359645757       -1.1169179503       -0.0011248346
 O          3.8587285470       -0.3100167951        0.0004689452
 H         -4.1637153936       -1.7435425271       -0.0135463233
 H         -4.1467992096       -0.1709076600       -0.8787604853
 H         -4.1477646177       -0.1964567065        0.8960346077
 H          0.1131735719        2.2556982905        0.0010051204
 H          2.5737361063        2.0291885657        0.0015795876
 H          2.1710634646       -2.2238760075       -0.0014923450
 H         -0.2980309456       -1.9885641031       -0.0018872711
 H          4.3376707426        0.5342955115        0.0012738672
  19
  -33.4231809300000       4.290053851422983E-002 !md3
 C         -3.8063571566       -0.7185053598       -0.0043822085
 O         -2.3822607086       -0.8091099077       -0.0031178302
 C         -1.7015774288        0.3406700190        0.0017893233
 O         -2.2580888484        1.4267306531        0.0051340141
 C         -0.2447705556        0.1534704108        0.0016602828
 C          0.5771339553        1.2809410023       -0.0016452017
 C          1.9483154067        1.1492465361       -0.0030186319
 C          2.5260544922       -0.1207348223       -0.0006739692
 C          1.7050933881       -1.2518663509        0.0033184507
 C          0.3360464784       -1.1170319018        0.0042911661
 O          3.8587623374       -0.3098709652       -0.0020217688
 H         -4.1492921509       -0.2049657516        0.8950537977
 H         -4.1640348515       -1.7429768545       -0.0297581348
 H         -4.1452215035       -0.1618536242       -0.8794016729
 H          0.1130155370        2.2555504580       -0.0033944452
 H          2.5736058542        2.0292332481       -0.0059191467
 H          2.1712516297       -2.2238440418        0.0054826991
 H         -0.2978853304       -1.9887206515        0.0072735428
 H          4.3376165561        0.5344873091       -0.0052071781
  19
  -33.4231804300000       4.287784595382780E-002 !gc
 C         -3.8067961816       -0.7172843940       -0.0070653634
 O         -2.3827604198       -0.8092639168       -0.0036173838
 C         -1.7015049741        0.3401736319        0.0027962332
 O         -2.2576535518        1.4264310304        0.0068162542
 C         -0.2447183975        0.1528609206        0.0028165627
 C          0.5768733888        1.2805545028       -0.0019255882
 C          1.9480641510        1.1492557923       -0.0041559924
 C          2.5261311505       -0.1205766011       -0.0009831879
 C          1.7055003593       -1.2519390126        0.0046898964
 C          0.3363803128       -1.1174886308        0.0063865091
 O          3.8589144930       -0.3092276583       -0.0034323715
 H         -4.1434151830       -0.1572063206       -0.8808423566
 H         -4.1508025846       -0.2066541853        0.8934845673
 H         -4.1655488787       -1.7412931887       -0.0369555029
 H          0.1123861250        2.2549787643       -0.0041554115
 H          2.5731184329        2.0294074489       -0.0084638144
 H          2.1719487958       -2.2237734918        0.0074679417
 H         -0.2972873163       -1.9893688954        0.0107780387
 H          4.3373680655        0.5353562912       -0.0081029295
  19
  -33.4231803000000       4.287194785435616E-002 !gc
 C         -3.7685434188        0.8956164323       -0.0012164487
 O         -2.3417717853        0.9193758746       -0.0008979218
 C         -1.7156369970       -0.2610074790        0.0004924028
 O         -2.3223328828       -1.3198483454        0.0016983601
 C         -0.2516715321       -0.1420566788        0.0004808454
 C          0.3877061213        1.1000118958        0.0010532526
 C          1.7615383217        1.1709388915        0.0007364459
 C          2.5289032666        0.0027852473       -0.0002534491
 C          1.8926406261       -1.2389122456       -0.0007331455
 C          0.5168069321       -1.3066024569       -0.0003145886
 O          3.8689683922        0.1296176077       -0.0006950252
 H         -4.1343554514        0.3712504251        0.8828344333
 H         -4.1339606412        0.3826731430       -0.8921069147
 H         -4.0778095476        1.9360196885        0.0052689453
 H         -0.2049383035        2.0002818206        0.0017713358
 H          2.2724661129        2.1201476172        0.0012063167
 H          2.4763365750       -2.1470421148       -0.0014475091
 H          0.0078165927       -2.2585477296       -0.0006904675
 H          4.3079026633       -0.7361614504       -0.0014328492
  19
  -33.4231792000000       4.282207332591158E-002 !gc
 C         -3.7685798635        0.8957790694        0.0051897801
 O         -2.3417927464        0.9192787903        0.0049049380
 C         -1.7156468495       -0.2610713662       -0.0016827412
 O         -2.3222263878       -1.3199604420       -0.0081155645
 C         -0.2516790063       -0.1420436391       -0.0011369361
 C          0.3876857782        1.1000159273        0.0051871881
 C          1.7615162305        1.1709274798        0.0059255246
 C          2.5289005035        0.0027917756        0.0004098741
 C          1.8926470441       -1.2388909780       -0.0060264515
 C          0.5168121351       -1.3065647309       -0.0067624191
 O          3.8689534439        0.1296469960        0.0016177976
 H         -4.1342501903        0.3402634095       -0.8596950301
 H         -4.0777370909        1.9353566836       -0.0377596626
 H         -4.1342101387        0.4150406165        0.9137667433
 H         -0.2049417535        2.0002866777        0.0095015585
 H          2.2724660059        2.1201128634        0.0108230475
 H          2.4763334255       -2.1470162491       -0.0103284397
 H          0.0077995762       -2.2584868413       -0.0116889346
 H          4.3079186008       -0.7361067833       -0.0024887763
  19
  -33.4231791500000       4.281980768112920E-002 !gc
 C         -3.7684591878        0.8957395744       -0.0006613000
 O         -2.3417905878        0.9193629711        0.0005064288
 C         -1.7155807842       -0.2610988912        0.0001328733
 O         -2.3223907606       -1.3198138831       -0.0001569897
 C         -0.2517093772       -0.1421174182        0.0005993145
 C          0.3876849528        1.0999569291        0.0020316271
 C          1.7615158085        1.1708955008        0.0016443662
 C          2.5289177108        0.0027676526       -0.0002272548
 C          1.8926459093       -1.2389239723       -0.0015683997
 C          0.5168148992       -1.3066375327       -0.0011632955
 O          3.8689695449        0.1297079534       -0.0006950102
 H         -4.0777499011        1.9353443268        0.0386427430
 H         -4.1347811538        0.3432053322        0.8657931395
 H         -4.1334095683        0.4119510504       -0.9078393477
 H         -0.2050001370        2.0002002786        0.0032944062
 H          2.2724180233        2.1201118091        0.0027599244
 H          2.4762233661       -2.1470901408       -0.0028517811
 H          0.0078662878       -2.2585912747       -0.0021864452
 H          4.3080578703       -0.7360011283       -0.0015167065
  19
  -33.4230991400000       3.934365129852507E-002 !gc
 C         -3.7682080245        0.9161059752       -0.0275293056
 O         -2.3405139451        0.9123043926       -0.0295946630
 C         -1.7168480790       -0.2677919879        0.0125459650
 O         -2.3174757900       -1.3296788076        0.0458612557
 C         -0.2526033441       -0.1453451246        0.0060644159
 C          0.3845917186        1.0975704807       -0.0191275429
 C          1.7583216030        1.1712051695       -0.0233358405
 C          2.5278380474        0.0047375667       -0.0029898859
 C          1.8939251466       -1.2378450730        0.0221130062
 C          0.5181958416       -1.3081539437        0.0271266669
 O          3.8677132834        0.1337355550       -0.0083415736
 H         -4.0686687452        1.8161781197       -0.5564460820
 H         -4.1281189866        0.9370525674        1.0017186483
 H         -4.1453605221        0.0214479663       -0.5249619567
 H         -0.2097513081        1.9965877988       -0.0346665720
 H          2.2672249842        2.1213334429       -0.0421633996
 H          2.4794893485       -2.1446360124        0.0377885241
 H          0.0112977434       -2.2609888923        0.0467220469
 H          4.3080226225       -0.7311266833        0.0073705918
  19
  -33.4230845900000       3.874252707821441E-002 !gc
 C         -3.8075510686       -0.7445308079       -0.0042747056
 O         -2.3806818513       -0.8014601924       -0.0071736038
 C         -1.7027805665        0.3487292000        0.0037611389
 O         -2.2509826250        1.4391683498        0.0087691037
 C         -0.2458113832        0.1567979559        0.0007977658
 C          0.5783046670        1.2826196111       -0.0042499837
 C          1.9492632889        1.1486630166       -0.0054430016
 C          2.5247838212       -0.1222534572       -0.0006265819
 C          1.7017431245       -1.2518063312        0.0045402686
 C          0.3328901955       -1.1146188832        0.0050556753
 O          3.8572298218       -0.3137205424       -0.0005108125
 H         -4.1656966762       -0.8293868522        1.0220030635
 H         -4.1493542973       -1.5876822565       -0.5985647393
 H         -4.1442368998        0.2007714825       -0.4321056020
 H          0.1158972828        2.2580260246       -0.0074978438
 H          2.5759385462        2.0276497651       -0.0097753359
 H          2.1661601799       -2.2246203905        0.0083681599
 H         -0.3021870441       -1.9854648962        0.0094316473
 H          4.3373965625        0.5298819441       -0.0038411154
  19
  -33.4230833000000       3.868967684501715E-002 !hor
 C         -3.8102594994       -0.6961996401        0.0024569416
 O         -2.3866394927       -0.7948162376        0.0017311920
 C         -1.6994544443        0.3516911568       -0.0009396421
 O         -2.2505578841        1.4402464570       -0.0027566210
 C         -0.2437779050        0.1561020635       -0.0009149887
 C          0.5869647317        1.2794210248        0.0009372448
 C          1.9546799290        1.1372226914        0.0016245684
 C          2.5251566113       -0.1383973198        0.0003897285
 C          1.6980697768       -1.2623701358       -0.0018308060
 C          0.3276848049       -1.1165633706       -0.0024128690
 O          3.8682140706       -0.2285031411        0.0011427822
 H         -4.1475189492       -0.1566051320        0.8886458000
 H         -4.1737251611       -1.7189249413        0.0055006934
 H         -4.1488783843       -0.1613108335       -0.8860897710
 H          0.1303099157        2.2573072154        0.0019711708
 H          2.6077544026        1.9947653305        0.0031493789
 H          2.1321046629       -2.2508799669       -0.0030432268
 H         -0.3127616537       -1.9837441615       -0.0038592461
 H          4.1621186255       -1.1538198426        0.0000828522
  19
  -33.4230832900000       3.868926743498489E-002 !mtd8
 C         -3.7741513773        0.8710050982        0.0024604425
 O         -2.3474985104        0.9039277966        0.0021126354
 C         -1.7138540314       -0.2730227618       -0.0009614909
 O         -2.3145389559       -1.3350132656       -0.0034627478
 C         -0.2507173694       -0.1446972673       -0.0006341835
 C          0.3787912212        1.1002767863        0.0031278347
 C          1.7544407928        1.1827918321        0.0035579631
 C          2.5288656540        0.0219172220        0.0002675213
 C          1.9002000084       -1.2260582113       -0.0035230331
 C          0.5273961806       -1.3050935267       -0.0039819271
 O          3.8746449882        0.0500102668        0.0005098238
 H         -4.1360828782        0.3389835365        0.8835371516
 H         -4.1368310474        0.3609118874       -0.8911725181
 H         -4.0900867357        1.9093480438        0.0151804257
 H         -0.2210042587        1.9960498439        0.0057426657
 H          2.2335489943        2.1502555883        0.0064147452
 H          2.5130541599       -2.1127827083       -0.0060521805
 H          0.0261651269       -2.2608902102       -0.0069346852
 H          4.2109723121        0.9607633903        0.0028916439
  19
  -33.4230831200000       3.868230812782786E-002 !md5
 C         -3.8104832652       -0.6956587002       -0.0031510422
 O         -2.3868781070       -0.7948707760       -0.0005771970
 C         -1.6994372177        0.3514450859        0.0013795131
 O         -2.2503219596        1.4401539180        0.0013071116
 C         -0.2437746316        0.1558009560        0.0015820583
 C          0.5868140268        1.2792048478        0.0000791575
 C          1.9545561058        1.1372288674       -0.0009337151
 C          2.5252313783       -0.1382742384       -0.0004838053
 C          1.6982487267       -1.2623570979        0.0016949772
 C          0.3278670672       -1.1168115812        0.0025685160
 O          3.8682764951       -0.2282478806       -0.0022309689
 H         -4.1456432567       -0.1448493347       -0.8832643338
 H         -4.1506285592       -0.1717107368        0.8913193438
 H         -4.1743894561       -1.7181155860       -0.0194147304
 H          0.1300018696        2.2570163669       -0.0003056751
 H          2.6073296853        1.9949838487       -0.0021738893
 H          2.1324645981       -2.2507960167        0.0025697241
 H         -0.3125209179       -1.9840315952        0.0042366284
 H          4.1623395660       -1.1535139075       -0.0017398004
  19
  -33.4230824200000       3.865366534422729E-002 !md5
 C         -3.8103282449       -0.6961359505        0.0061815282
 O         -2.3867131557       -0.7947848171        0.0041888176
 C         -1.6994523349        0.3516629988       -0.0025029086
 O         -2.2504718936        1.4402531540       -0.0067527601
 C         -0.2437889641        0.1560188174       -0.0022561159
 C          0.5869235968        1.2793564033        0.0022443813
 C          1.9546376317        1.1372136073        0.0040049884
 C          2.5251722933       -0.1383891094        0.0008032208
 C          1.6981294897       -1.2623773507       -0.0045736779
 C          0.3277306751       -1.1166216129       -0.0059077632
 O          3.8682328707       -0.2284194158        0.0030564710
 H         -4.1737658166       -1.7182065419        0.0439207940
 H         -4.1514933978       -0.1912094533       -0.8987667741
 H         -4.1449775319       -0.1271777635        0.8748721020
 H          0.1302144886        2.2572171858        0.0047406955
 H          2.6076624139        1.9947777265        0.0080194227
 H          2.1321896127       -2.2508743992       -0.0076066608
 H         -0.3126671361       -1.9838299401       -0.0099670822
 H          4.1622217384       -1.1537141290        0.0008784543
  19
  -33.4230822300000       3.864589453461801E-002 !mtd1
 C         -3.7740241973        0.8715212763        0.0088446755
 O         -2.3472961941        0.9038608329        0.0071141155
 C         -1.7139231849       -0.2731540587       -0.0032206180
 O         -2.3146798512       -1.3350597230       -0.0125861149
 C         -0.2507468906       -0.1449358244       -0.0024373449
 C          0.3786769262        1.1000648685        0.0068164541
 C          1.7543046790        1.1827177412        0.0085302167
 C          2.5288555506        0.0219492804        0.0010117542
 C          1.9002706286       -1.2260348791       -0.0084076820
 C          0.5274674221       -1.3052327128       -0.0101344580
 O          3.8746353557        0.0501791960        0.0025715546
 H         -4.0895141794        1.9097544504       -0.0174217626
 H         -4.1355242487        0.3740453188        0.9100469190
 H         -4.1374564198        0.3274836270       -0.8642302769
 H         -0.2212533502        1.9957228818        0.0129106064
 H          2.2332891297        2.1502225176        0.0160066853
 H          2.5132558251       -2.1126695252       -0.0141531206
 H          0.0264149852       -2.2611067273       -0.0174266225
 H          4.2107760896        0.9609688715        0.0083566416
  19
  -33.4230819800000       3.863567216530048E-002 !mtd4
 C         -3.7740271074        0.8712304231       -0.0200319721
 O         -2.3473239310        0.9036147013       -0.0202328700
 C         -1.7139432287       -0.2730425171        0.0079772569
 O         -2.3145907924       -1.3347727322        0.0333007166
 C         -0.2507276095       -0.1447942443        0.0049388294
 C          0.3787239672        1.1001011184       -0.0126311697
 C          1.7543590582        1.1826547746       -0.0161324692
 C          2.5288158229        0.0218857319       -0.0025707345
 C          1.9002286644       -1.2259750542        0.0155158935
 C          0.5274162000       -1.3050414178        0.0195429603
 O          3.8746105844        0.0500941632       -0.0059082367
 H         -4.1358099664        0.3094829778       -0.8824877712
 H         -4.0895007818        1.9086487440       -0.0683841605
 H         -4.1372585684        0.3922582080        0.8904007207
 H         -0.2211182260        1.9957816520       -0.0232521435
 H          2.2334389183        2.1500437000       -0.0294432423
 H          2.5131193912       -2.1126100159        0.0258879515
 H          0.0262973198       -2.2608042705        0.0332281419
 H          4.2106586144        0.9608543899       -0.0191862192
  19
  -33.4230768500000       3.842650514088926E-002 !gc
 C         -3.8075912336       -0.7481064048        0.0066068233
 O         -2.3804191656       -0.8004392221        0.0040851985
 C         -1.7029215385        0.3499074629       -0.0040157405
 O         -2.2501631924        1.4408518261       -0.0049395625
 C         -0.2459756471        0.1573077876       -0.0032646172
 C          0.5784665173        1.2828748366        0.0010191483
 C          1.9494088068        1.1485499481        0.0036105303
 C          2.5246154972       -0.1224819066        0.0012063958
 C          1.7012483083       -1.2518251110       -0.0044524469
 C          0.3324596797       -1.1142609003       -0.0065007209
 O          3.8569985954       -0.3142852446        0.0038384149
 H         -4.1460681366       -1.5519306895        0.6552181781
 H         -4.1685461546       -0.9004883733       -1.0106321113
 H         -4.1442063650        0.2218122316        0.3753131570
 H          0.1164434789        2.2584636572        0.0030911786
 H          2.5763086199        2.0273836595        0.0075979143
 H          2.1653840634       -2.2247748380       -0.0068892865
 H         -0.3028598940       -1.9849346592       -0.0106322919
 H          4.3374411595        0.5291567324        0.0085705342
  19
  -33.4230765200000       3.841308878285558E-002 !gc
 C         -3.8073085239       -0.7481497422        0.0079191825
 O         -2.3801872398       -0.8005796248        0.0110237385
 C         -1.7028998164        0.3499347602       -0.0049751213
 O         -2.2505141423        1.4406472414       -0.0150553518
 C         -0.2459518573        0.1576843303       -0.0016739827
 C          0.5785719525        1.2831431633        0.0067840332
 C          1.9495136233        1.1485369665        0.0088477308
 C          2.5245636862       -0.1225542194        0.0011077565
 C          1.7010951969       -1.2517901045       -0.0078102896
 C          0.3323319710       -1.1139751873       -0.0089316652
 O          3.8569143346       -0.3145891705        0.0014474161
 H         -4.1645934534       -0.9023884216       -1.0103821557
 H         -4.1455056588        0.2224082945        0.3735090357
 H         -4.1479983706       -1.5508575995        0.6567427231
 H          0.1168070478        2.2588340900        0.0122729861
 H          2.5765614378        2.0272413779        0.0161055365
 H          2.1650503140       -2.2248128568       -0.0139369262
 H         -0.3032071601       -1.9844615992       -0.0158743693
 H          4.3375565666        0.5287260847        0.0074783673
  19
  -33.4230763400000       3.840577274378029E-002 !gc
 C         -3.8072370308       -0.7485425615       -0.0106270614
 O         -2.3800877481       -0.8003402434       -0.0096082284
 C         -1.7029843810        0.3500609185        0.0059398559
 O         -2.2504913897        1.4408437331        0.0140351703
 C         -0.2459690374        0.1576270554        0.0035150706
 C          0.5786180280        1.2830765742       -0.0054525749
 C          1.9495324160        1.1485554605       -0.0086075396
 C          2.5245459250       -0.1225772571       -0.0015138992
 C          1.7010349646       -1.2517499425        0.0084670629
 C          0.3322413945       -1.1139894811        0.0106754544
 O          3.8569111334       -0.3146287644       -0.0039001754
 H         -4.1447848552        0.2227129026       -0.3750711490
 H         -4.1675161764       -0.9053173939        1.0062382759
 H         -4.1458505692       -1.5499173780       -0.6622907738
 H          0.1166107825        2.2586705562       -0.0104620374
 H          2.5765616055        2.0272691710       -0.0165340543
 H          2.1650345395       -2.2247541297        0.0143063858
 H         -0.3031003740       -1.9846167187        0.0186207257
 H          4.3374223848        0.5287515392       -0.0117264441
  19
  -33.4230736000000       3.829457825710299E-002 !gc
 C         -3.8075865362       -0.7488607294       -0.0146167787
 O         -2.3803483545       -0.8001516953       -0.0091172828
 C         -1.7029522873        0.3501339844        0.0070351601
 O         -2.2499241977        1.4411921604        0.0137553441
 C         -0.2460110016        0.1573830379        0.0063402858
 C          0.5784619639        1.2828895313       -0.0036981289
 C          1.9493895685        1.1485048863       -0.0087400846
 C          2.5245539079       -0.1225287623       -0.0023881199
 C          1.7011658719       -1.2517990758        0.0103277840
 C          0.3323850695       -1.1141802417        0.0142031907
 O          3.8569210906       -0.3143962225       -0.0077552487
 H         -4.1443356372       -1.5360667028       -0.6842936793
 H         -4.1437056320        0.2298667881       -0.3597249347
 H         -4.1705908447       -0.9274936572        0.9975345172
 H          0.1164588840        2.2584741545       -0.0089202686
 H          2.5762997340        2.0272904205       -0.0179297686
 H          2.1652892403       -2.2247386683        0.0163967703
 H         -0.3029549890       -1.9848035479        0.0235078493
 H          4.3373692140        0.5289957359       -0.0179443033
  19
  -33.4230733500000       3.828444881576086E-002 !gc
 C         -3.7682887630        0.9240632147       -0.0435300586
 O         -2.3402986066        0.9085735007       -0.0462481451
 C         -1.7174251536       -0.2704592143        0.0187687385
 O         -2.3148408858       -1.3333623881        0.0732891151
 C         -0.2530577134       -0.1461467375        0.0090688375
 C          0.3833810828        1.0967515967       -0.0315882304
 C          1.7570378354        1.1708877497       -0.0378830053
 C          2.5274722096        0.0052442922       -0.0044855616
 C          1.8943052575       -1.2372430214        0.0360386642
 C          0.5186078243       -1.3080216379        0.0433502725
 O          3.8672006615        0.1354591080       -0.0127828098
 H         -4.1164589235        1.1556808792        0.9631201984
 H         -4.1524040128       -0.0492881443       -0.3515651345
 H         -4.0715899877        1.7018905658       -0.7396432241
 H         -0.2111021114        1.9954404070       -0.0571750262
 H          2.2655961795        2.1208973937       -0.0683759467
 H          2.4800331082       -2.1436949311        0.0618559372
 H          0.0121916480       -2.2608052561        0.0749654618
 H          4.3086613919       -0.7286712388        0.0127548059
  19
  -33.4229799000000       3.467973358021566E-002 !gc
 C         -3.8113850255       -0.7229533699        0.0107761506
 O         -2.3847978954       -0.7869774016        0.0119832516
 C         -1.7006190910        0.3600904393       -0.0061946576
 O         -2.2436261815        1.4527946486       -0.0166447216
 C         -0.2448457300        0.1597550461       -0.0027867188
 C          0.5882546058        1.2812279091        0.0072319532
 C          1.9557149405        1.1365834158        0.0100007706
 C          2.5238945830       -0.1399590466        0.0013102449
 C          1.6945757123       -1.2622008273       -0.0094485208
 C          0.3244534931       -1.1138939027       -0.0111123848
 O          3.8667060086       -0.2327478858        0.0034523391
 H         -4.1426460794        0.2284427079        0.4291105441
 H         -4.1565170007       -1.5579276852        0.6146629124
 H         -4.1716512872       -0.8167235368       -1.0139674393
 H          0.1334229892        2.2599251565        0.0133096814
 H          2.6101853657        1.9930056459        0.0185042380
 H          2.1268295652       -2.2514688001       -0.0167404834
 H         -0.3171703998       -1.9801412664       -0.0196497415
 H          4.1591181580       -1.1585044744       -0.0033765744
  19
  -33.4229766400000       3.456030449334962E-002 !md6
 C         -3.8111623707       -0.7247952877        0.0097186046
 O         -2.3845049666       -0.7866073261        0.0109834406
 C         -1.7006935976        0.3606611636       -0.0055926116
 O         -2.2433236101        1.4535983673       -0.0146344735
 C         -0.2449021427        0.1601985438       -0.0027575684
 C          0.5884324554        1.2815483314        0.0061425451
 C          1.9558375814        1.1365582944        0.0087683358
 C          2.5237048814       -0.1401782480        0.0011229185
 C          1.6941528821       -1.2622303152       -0.0087720855
 C          0.3240618632       -1.1135561338       -0.0102926442
 O          3.8666053927       -0.2331293253        0.0037721677
 H         -4.1558200851       -1.5446394142        0.6345181676
 H         -4.1710592498       -0.8453059519       -1.0123395080
 H         -4.1432815943        0.2364829059        0.4043911692
 H          0.1337441481        2.2603254149        0.0114966891
 H          2.6106555593        1.9927267518        0.0163469831
 H          2.1259963221       -2.2516836103       -0.0151563782
 H         -0.3179085882       -1.9795646719       -0.0181715585
 H          4.1586813573       -1.1590285845       -0.0031966154
  19
  -33.4229754700000       3.451754227330094E-002 !gc
 C         -3.8117128294       -0.7243904236       -0.0105316965
 O         -2.3849226627       -0.7864645057       -0.0082342069
 C         -1.7007807739        0.3604082329        0.0057846894
 O         -2.2426937064        1.4537161759        0.0114019865
 C         -0.2448999993        0.1596453909        0.0039384367
 C          0.5882003442        1.2811570197       -0.0039759548
 C          1.9556322815        1.1365645183       -0.0071527181
 C          2.5237699386       -0.1400341785       -0.0016257650
 C          1.6945058057       -1.2622803596        0.0079390184
 C          0.3243088639       -1.1139712108        0.0103629589
 O          3.8667163427       -0.2326243242       -0.0051624767
 H         -4.1421586094        0.2404360972       -0.3978541665
 H         -4.1739553594       -0.8540962530        1.0095173504
 H         -4.1550380928       -1.5384778172       -0.6435143132
 H          0.1332793145        2.2598354037       -0.0085487167
 H          2.6101145306        1.9929844007       -0.0141705418
 H          2.1266650889       -2.2516035158        0.0133918986
 H         -0.3172246500       -1.9803103538        0.0176773208
 H          4.1590569860       -1.1584124891       -0.0013086329
  19
  -33.4229727100000       3.441687680068303E-002 !gc
 C         -3.7749803778        0.8972768671        0.0391489758
 O         -2.3467422215        0.8934884304        0.0423639388
 C         -1.7153964322       -0.2819108634       -0.0175421707
 O         -2.3062705250       -1.3484007220       -0.0679712749
 C         -0.2519572275       -0.1478379040       -0.0081193245
 C          0.3749870682        1.0977312805        0.0323846202
 C          1.7505191366        1.1829361660        0.0382818887
 C          2.5275436163        0.0243403923        0.0044349928
 C          1.9015530721       -1.2242573936       -0.0357608007
 C          0.5289256081       -1.3058355238       -0.0426343415
 O          3.8733214667        0.0551774663        0.0088985165
 H         -4.1257329199        1.1053664161       -0.9717885774
 H         -4.0842788091        1.6862367369        0.7198558908
 H         -4.1508791519       -0.0730491661        0.3664319340
 H         -0.2262628134        1.9921657066        0.0582857755
 H          2.2276009296        2.1509242547        0.0693451430
 H          2.5160839063       -2.1094510146       -0.0610677514
 H          0.0296913951       -2.2621586419       -0.0738818301
 H          4.2077708734        0.9661957294        0.0365766069
  19
  -33.4229702300000       3.432667420411261E-002 !gc
 C         -3.7743525023        0.8992808327        0.0405215433
 O         -2.3461280540        0.8931174065        0.0449255443
 C         -1.7155096304       -0.2824815067       -0.0184548271
 O         -2.3066527836       -1.3486589811       -0.0724745861
 C         -0.2520832321       -0.1486360705       -0.0076616888
 C          0.3745575370        1.0970343468        0.0350196058
 C          1.7500336941        1.1827417130        0.0407764544
 C          2.5274433158        0.0244623507        0.0045754106
 C          1.9017759467       -1.2242508222       -0.0372279707
 C          0.5291231524       -1.3063326917       -0.0438330386
 O          3.8731843197        0.0558221552        0.0078390047
 H         -4.0843346282        1.6717586003        0.7398827196
 H         -4.1520379770       -0.0783114904        0.3434423306
 H         -4.1228235591        1.1330703840       -0.9656020525
 H         -0.2269731289        1.9912252313        0.0626611661
 H          2.2266832004        2.1508950982        0.0732723558
 H          2.5165854340       -2.1092026621       -0.0643221468
 H          0.0305215670       -2.2629210128       -0.0767542209
 H          4.2073252997        0.9669177930        0.0368513696
  19
  -33.4229701600000       3.432413159666181E-002 !md6
 C         -3.8114901992       -0.7272150321       -0.0132242748
 O         -2.3844557469       -0.7857910030       -0.0090562083
 C         -1.7008546523        0.3613723566        0.0067892131
 O         -2.2425604114        1.4547512656        0.0133817671
 C         -0.2449332159        0.1604243705        0.0051062620
 C          0.5884966233        1.2816142357       -0.0044464955
 C          1.9559005402        1.1365066069       -0.0085163240
 C          2.5236098764       -0.1402776273       -0.0019406259
 C          1.6939469797       -1.2621903295        0.0094063625
 C          0.3238288509       -1.1133812156        0.0125117203
 O          3.8665303436       -0.2334564812       -0.0065102392
 H         -4.1530568981       -1.5117572185       -0.6837035450
 H         -4.1430182810        0.2536272564       -0.3567000938
 H         -4.1744254321       -0.9052564164        0.9990921622
 H          0.1340749364        2.2605368454       -0.0096470727
 H          2.6106747827        1.9927413586       -0.0170791381
 H          2.1258308473       -2.2517124174        0.0155456960
 H         -0.3180567685       -1.9794468919        0.0214070716
 H          4.1583236267       -1.1593625087       -0.0019927867
  19
  -33.4229627500000       3.405604085347808E-002 !gc
 C         -3.7735895007        0.9061921321       -0.0023683196
 O         -2.3452450269        0.8929038339       -0.0038219332
 C         -1.7159158527       -0.2848957412        0.0022913412
 O         -2.3062263132       -1.3529009292        0.0045890452
 C         -0.2523478069       -0.1502289714        0.0005660537
 C          0.3735547003        1.0965705801       -0.0006826865
 C          1.7489350007        1.1833589004       -0.0011000408
 C          2.5270860005        0.0250222809       -0.0003960645
 C          1.9022447725       -1.2247587421        0.0006884933
 C          0.5296139317       -1.3079539333        0.0013172565
 O          3.8728507864        0.0574668061       -0.0006530359
 H         -4.1549253991       -0.0877660786       -0.2401621697
 H         -4.0848180363        1.6308303250       -0.7512415348
 H         -4.1157412578        1.2098624743        0.9866148767
 H         -0.2285677363        1.9907833314       -0.0006885314
 H          2.2248888095        2.1523868806       -0.0016368832
 H          2.5176833303       -2.1097005041        0.0011765851
 H          0.0316591431       -2.2654553652        0.0023430558
 H          4.2060423485        0.9693741148       -0.0019823650
  19
  -33.4144920100000       4.358244486397602E-006 !gc
 C         -3.7816813081       -0.3628313394       -0.7228142500
 O         -2.3496057546       -0.3850592733       -0.7038288348
 C         -1.7215723841        0.2171006139        0.2959047167
 O         -2.2862598462        0.7954462189        1.2014871470
 C         -0.2417351292        0.0997185566        0.1557280449
 C          0.4731859964        1.0725779338       -0.5298812622
 C          1.8465881002        0.9728444837       -0.6496642243
 C          2.5213813795       -0.1044633265       -0.0830107922
 C          1.8010943541       -1.0798355808        0.6048911013
 C          0.4304130062       -0.9775279213        0.7224548340
 O          3.8630201333       -0.2504735384       -0.1710711745
 H         -4.1460192764        0.5396502945       -0.2305633235
 H         -4.1595308787       -1.2416713241       -0.2007636466
 H         -4.0701138588       -0.3858808185       -1.7697133624
 H         -0.0462548564        1.9106329765       -0.9684264033
 H          2.3924239938        1.7350140947       -1.1849442760
 H          2.3365338961       -1.9085561752        1.0388805115
 H         -0.1224167692       -1.7335665664        1.2580171286
 H          4.2618220196        0.4814079541       -0.6671874521
