! pbe def2-sv(p) def2/J RI DEFGRID1 loosescf d4 GCP(DFT/SV(P)) printgap
%output
    printlevel normal
end
* xyz 0 1
C 0.8085584164 1.3250460336 -1.011930996
C 1.4400013278 0.3308965743 -0.0291419458
H 2.4475175001 0.0849335303 -0.3803040006
C 0.6159897147 -0.9846749588 0.0439740498
H 0.5766808997 -1.2887459203 1.0963551945
C -0.8213398279 -0.7589989879 -0.4640331127
H -0.8408516219 -0.8201362376 -1.5580656284
C -1.2899353538 0.6502833972 -0.0637946256
H -2.3279899572 0.7943723521 -0.395325669
O -0.5436530646 1.655262009 -0.6942561907
O -1.2075660734 0.7544913526 1.333726639
O -1.7214613172 -1.7376085148 -0.0254176085
O 1.2496008804 -2.0546468479 -0.6093078613
O 1.6226057057 0.9029423705 1.2413912187
H 0.8491989212 0.9181954638 -2.028884437
H 1.3507161337 2.2716934933 -0.9806113525
H -1.675790244 1.5478441151 1.6347342165
H -1.7689950565 -1.7202031433 0.9425544958
H 1.2014915785 -1.9419222197 -1.5690157343
H 0.7432795869 1.0626436143 1.62973494
*
