! pbe def2-sv(p) def2/J RI DEFGRID1 loosescf d4 GCP(DFT/SV(P)) printgap
%output
    printlevel normal
end
* xyz 0 1
C 4.0337547987 -2.6426267446 0.6622234263
C 2.8409732233 -1.7497602597 0.9588874654
O 2.5923077242 -0.8882968316 -0.1675237594
C 1.498133496 -1.032538897 -0.8752958787
O 0.6117631224 -1.8356077965 -0.6449000822
C 1.4370598401 -0.0547952978 -2.0298243511
C 0.2306274606 0.8747985442 -1.874503911
H 0.125270222 1.4853556395 -2.7763443731
C 0.3447522947 1.8049200073 -0.6780076199
O -0.5847442492 1.9960922021 0.081385937
O 1.5212887255 2.3595503804 -0.5994120462
C 1.8199609606 3.2165347238 0.5245618286
C 2.4735501675 2.4114402624 1.6349872874
S -1.3555230356 -0.0110837942 -1.7461506193
P -1.5633228579 -0.4465036974 0.3424129042
S -0.2841515429 -0.2918497093 1.8209833416
O -2.9745345602 0.2537770019 0.6685423132
C -3.1662885738 1.5577709522 1.2096078888
O -2.0598854603 -1.9539508072 0.3142441582
C -3.0473504967 -2.4613742797 -0.5964428997
H 4.2589728794 -3.2363670818 1.5417158722
H 3.8104800772 -3.3086107502 -0.1674176649
H 4.8968556136 -2.0347755753 0.4075149827
H 3.0365402329 -1.0845736454 1.80219163
H 1.9375171414 -2.3301977052 1.165152827
H 1.3172894194 -0.6255614265 -2.951366209
H 2.3531354958 0.5338254429 -2.0564442995
H 2.5002345365 3.9660713136 0.119768709
H 0.8931387617 3.6810005361 0.8699026745
H 2.7405181112 3.0748525887 2.4505472875
H 1.7837666413 1.6547679246 2.0073951886
H 3.3670175041 1.9182266782 1.2625811223
H -2.4029489563 1.7696314703 1.9590368756
H -4.1549799907 1.5426428128 1.6625995401
H -3.1120544125 2.3009267587 0.4156366414
H -3.9471096626 -1.8491291274 -0.5559772878
H -3.2516583031 -3.4729130957 -0.254651169
H -2.6436036166 -2.4738295226 -1.6088193093
*
