  19
  -25.4865391800000       0.163645029363525      !mtd3
 C          2.1576050935       -1.1978472969       -0.1020708583
 C          1.3993621171        0.1027772766        0.0063700171
 O          1.9707768012        1.1977310881        0.0550417436
 N          0.0682712957        0.0091466028        0.0483807225
 C         -0.7125302730       -1.2142973981       -0.0289696191
 C         -2.1471983659       -0.7552489551        0.2308214997
 C         -2.1536996621        0.6719943447       -0.3135186059
 C         -0.7833789467        1.1885399992        0.1088137302
 H          1.8381728591       -1.7482781285       -0.9829667069
 H          1.9784489513       -1.8097117177        0.7784155260
 H          3.2184888696       -0.9769036071       -0.1748819683
 H         -0.6167633637       -1.6539318658       -1.0274853806
 H         -0.3701096730       -1.9425721197        0.7077642228
 H         -2.8761503234       -1.3964593044       -0.2574192462
 H         -2.3478322935       -0.7438949767        1.3017932535
 H         -2.2307453420        0.6615167987       -1.4005314096
 H         -2.9607860454        1.2757116991        0.0919902867
 H         -0.3772847259        1.9660295150       -0.5411162068
 H         -0.7964481638        1.5774794829        1.1328144422
  19
  -25.4865391600000       0.163641566033369      !mtd12
 C          2.1575618866       -1.1968358381        0.1162189384
 C          1.3993952609        0.1026928360       -0.0050925094
 O          1.9708154494        1.1971845423       -0.0636713922
 N          0.0682983195        0.0085692761       -0.0477075713
 C         -0.7126663879       -1.2139748809        0.0401361072
 C         -2.1466437556       -0.7572845511       -0.2276318322
 C         -2.1543872224        0.6749235358        0.3034784565
 C         -0.7831803223        1.1874632002       -0.1208030845
 H          1.9808485272       -1.8158841753       -0.7598045842
 H          1.8358362048       -1.7401739242        1.0007008280
 H          3.2182413884       -0.9751009127        0.1899462637
 H         -0.3685536281       -1.9497928496       -0.6883317194
 H         -0.6194989930       -1.6434498891        1.0433619364
 H         -2.3443297622       -0.7558600291       -1.2992123253
 H         -2.8769367205       -1.3939311983        0.2645719865
 H         -2.9606593908        1.2749414068       -0.1090928345
 H         -2.2335068654        0.6744243908        1.3904186275
 H         -0.7940848131        1.5668618525       -1.1484199536
 H         -0.3783948978        1.9709427115        0.5227349072
  19
  -25.4865391600000       0.163641566033369      !mtd11
 C          2.1576073553       -1.1969748083        0.1148963948
 C          1.3993986814        0.1027199736       -0.0049483507
 O          1.9709201466        1.1971677320       -0.0627318116
 N          0.0683637187        0.0086558051       -0.0474864546
 C         -0.7126221084       -1.2138511666        0.0412356512
 C         -2.1466089902       -0.7576442178       -0.2271356537
 C         -2.1547342200        0.6751844652        0.3023159278
 C         -0.7831265790        1.1874765057       -0.1211266685
 H          3.2181447572       -0.9752042775        0.1902267496
 H          1.9820435462       -1.8140680408       -0.7627419218
 H          1.8350555293       -1.7423465760        0.9977880796
 H         -0.3683623468       -1.9501864655       -0.6865459422
 H         -0.6193846879       -1.6424375587        1.0447952437
 H         -2.3444221650       -0.7574411855       -1.2986930767
 H         -2.8768374564       -1.3937545936        0.2658399905
 H         -2.9606384352        1.2745952429       -0.1120010334
 H         -2.2352792620        0.6759906490        1.3891772400
 H         -0.7932400119        1.5667473902       -1.1487973748
 H         -0.3787191307        1.9710236449        0.5225738832
  19
  -25.4865391400000       0.163638102777125      !gc
 C          2.1574512166       -1.1969522406        0.1158355996
 C          1.3994404840        0.1027257666       -0.0050582108
 O          1.9709274517        1.1971088614       -0.0638732229
 N          0.0683513000        0.0087360331       -0.0472402307
 C         -0.7126728914       -1.2137997727        0.0406813462
 C         -2.1465578473       -0.7575313424       -0.2279255166
 C         -2.1546241837        0.6748203058        0.3027946975
 C         -0.7831018071        1.1876366143       -0.1202311867
 H          1.8359503678       -1.7402297885        1.0004222067
 H          3.2181933077       -0.9754266713        0.1892168494
 H          1.9803592333       -1.8158861639       -0.7601726201
 H         -0.3682287186       -1.9498149656       -0.6873181589
 H         -0.6198496927       -1.6428764159        1.0440671598
 H         -2.3438133917       -0.7563220164       -1.2995765312
 H         -2.8769996814       -1.3941484635        0.2640957044
 H         -2.9605448259        1.2745787778       -0.1108230831
 H         -2.2349831368        0.6745900535        1.3896231475
 H         -0.7931292022        1.5677164210       -1.1475780844
 H         -0.3787855554        1.9706931506        0.5241205661
  19
  -25.4865391000000       0.163631176483906      !mtd7
 C          2.1575567485       -1.1977557326       -0.1028908100
 C          1.3993386618        0.1028071617        0.0063009924
 O          1.9707164772        1.1977854320        0.0549126718
 N          0.0682786210        0.0090881965        0.0492097711
 C         -0.7124819140       -1.2143475813       -0.0278044801
 C         -2.1474770092       -0.7551877925        0.2302043030
 C         -2.1533045765        0.6719579696       -0.3143736221
 C         -0.7834022619        1.1884803311        0.1094083161
 H          1.9794732220       -1.8095969110        0.7778667263
 H          3.2183527982       -0.9767417914       -0.1769843492
 H          1.8370929128       -1.7482781230       -0.9833873350
 H         -0.6157598043       -1.6549900380       -1.0257684574
 H         -0.3707615834       -1.9419356452        0.7099539408
 H         -2.8758752241       -1.3964317189       -0.2588020441
 H         -2.3494651627       -0.7435934450        1.3009027722
 H         -2.2292318880        0.6612016788       -1.4014636575
 H         -2.9608396021        1.2757185401        0.0901580711
 H         -0.3766590347        1.9661066103       -0.5399339515
 H         -0.7973105388        1.5770420308        1.1335303318
  19
  -25.4865391000000       0.163631176483906      !gc
 C          2.1575205782       -1.1977728371       -0.1027525119
 C          1.3993270301        0.1028159475        0.0064810065
 O          1.9707316874        1.1978194867        0.0543164369
 N          0.0682878103        0.0090668240        0.0497158244
 C         -0.7124652688       -1.2143614745       -0.0279922357
 C         -2.1474369987       -0.7551840630        0.2299528340
 C         -2.1532488178        0.6720272505       -0.3144751441
 C         -0.7834890038        1.1884156378        0.1098139793
 H          3.2183290468       -0.9768317756       -0.1761264270
 H          1.8374832663       -1.7482199122       -0.9834233739
 H          1.9788233975       -1.8097279929        0.7778744986
 H         -0.6155765253       -1.6545044559       -1.0261658935
 H         -0.3708758214       -1.9422862215        0.7094751297
 H         -2.8758070602       -1.3964098890       -0.2591224159
 H         -2.3494231476       -0.7437047494        1.3006590527
 H         -2.2286495606        0.6614338534       -1.4016103699
 H         -2.9609701862        1.2757581879        0.0897754720
 H         -0.3765364967        1.9663116943       -0.5390852186
 H         -0.7978862513        1.5766044590        1.1340701314
  19
  -25.4842636200000       1.472745992657301E-002 !mtd4
 C          2.2095947213       -1.1746059447        0.1343633919
 C          1.3953519553        0.0896275406       -0.0074740281
 O          1.9478902243        1.1948234271       -0.0711029330
 N          0.0649517710       -0.0138379524       -0.0558210876
 C         -0.7393172025       -1.2256566569        0.0185901159
 C         -2.1698664438       -0.7403268730       -0.2204470554
 C         -2.1448082559        0.6870023823        0.3209411185
 C         -0.7733417606        1.1764335153       -0.1256941346
 H          1.6069909404       -2.0730397976        0.1447455145
 H          2.7795351827       -1.1047492624        1.0584590356
 H          2.9235667308       -1.2147725070       -0.6851550401
 H         -0.4266283205       -1.9493113001       -0.7359006388
 H         -0.6421268385       -1.6758906211        1.0116509925
 H         -2.3864253670       -0.7268820993       -1.2882855833
 H         -2.9016813125       -1.3693936024        0.2793297905
 H         -2.9475871023        1.3037277522       -0.0733589383
 H         -2.2039517780        0.6806512152        1.4091113528
 H         -0.7935551543        1.5487472612       -1.1556687460
 H         -0.3476991720        1.9581739308        0.5061482806
  19
  -25.4828904300000       3.443922898227330E-003 !mtd11
 C          2.1544051557       -1.2014086563       -0.1140927756
 C          1.3895623898        0.0986951551       -0.0315577889
 O          1.9521478249        1.1937458516       -0.1360015027
 N          0.0710628975        0.0081026814        0.1601383163
 C         -0.7257826996       -1.1889371574        0.3218313725
 C         -2.1057023774       -0.8118481256       -0.2344847308
 C         -2.1466764684        0.7273092844       -0.2415982142
 C         -0.7805832631        1.1753020545        0.2863488282
 H          3.2122387990       -0.9709677394       -0.2029779808
 H          1.8406654997       -1.7666912409       -0.9881985952
 H          1.9859005534       -1.7981528158        0.7779376130
 H         -0.2868646509       -2.0288641793       -0.2118831339
 H         -0.7904979611       -1.4408124746        1.3862996048
 H         -2.2201218302       -1.1965124143       -1.2461443036
 H         -2.8985895508       -1.2330901295        0.3785491045
 H         -2.3028843668        1.1004861714       -1.2518766734
 H         -2.9452810027        1.1128812896        0.3873921536
 H         -0.3402274545        2.0006548604       -0.2743160366
 H         -0.8370951442        1.4697539601        1.3401898503
