! pbe def2-sv(p) def2/J RI DEFGRID1 loosescf d4 GCP(DFT/SV(P)) printgap
%output
    printlevel normal
end
* xyz 0 1
C 3.0318782738 0.0829300601 3.2377690097
C 1.6695924273 -0.3063743288 2.7054270184
O 1.4081025872 0.3166055697 1.4299242554
P 2.1900317208 -0.1048048663 0.1224145803
S 2.8048427514 -1.9700749453 0.0665900699
O 3.2875796193 1.0402562642 0.0434734777
C 4.2336019094 1.1434765272 -1.0388333628
C 5.5075903879 0.3826313926 -0.7251924706
S 0.8327088145 0.4465416135 -1.4087678437
C -0.1090627335 -1.1013746825 -1.3918365542
S -1.1447062419 -1.2744674745 0.079703833
P -2.5340050526 0.2595548849 -0.4533899679
S -2.9643746861 0.3944977672 -2.3540387306
O -1.9271171906 1.5994386136 0.1135896255
C -1.6726495639 1.8159674189 1.5247194525
C -0.6728942899 2.9467676944 1.6452142771
O -3.7578829527 0.016010859 0.5325058557
C -4.8550710395 -0.8601702479 0.2115709419
C -4.4260316081 -2.3087897532 0.1044813882
H 3.1676982222 -0.3385463189 4.2287266996
H 3.8065261899 -0.3057542262 2.5775625682
H 3.122486896 1.1646984455 3.285866472
H 0.8639921109 0.0530929711 3.3466757192
H 1.5934533826 -1.3917487741 2.5849953336
H 3.7707367705 0.7756332916 -1.9592818544
H 4.4233387737 2.2144381713 -1.1323033443
H 6.2171326577 0.5257079882 -1.5337311033
H 5.9415968389 0.7465193538 0.2019051692
H 5.2983532251 -0.6798727965 -0.6224053491
H 0.5802043182 -1.9464297848 -1.3973223772
H -0.7416207602 -1.0929027849 -2.2796893496
H -2.6245895934 2.0637547839 1.9980900334
H -1.2856694834 0.8872476842 1.9547612797
H -0.5137470663 3.1724629476 2.6947396024
H 0.2729151989 2.6612102727 1.191205925
H -1.0510753391 3.8298468488 1.1382072291
H -5.5554587145 -0.7064558744 1.0337214695
H -5.3012835839 -0.5209743325 -0.7280262506
H -3.8795513827 -2.6105148739 0.9945830187
H -5.305620942 -2.9343099934 -0.0086716702
H -3.7843890881 -2.4443673063 -0.7648807602
*
