! wb97x-v def2-tzvp def2/J RIJCOSX DEFGRID2 scfconv7 GCP(DFT/TZ) printgap
%output
    printlevel normal
end
%cpcm
    smd true
    smdsolvent "water"
end
* xyz 0 1
C 0.7075016969435113 -0.00020263341196451347 -1.1660568822222195
C -0.3673515120143646 -8.286985741495204e-05 -0.08782791808772815
Cl -1.9550731913275543 0.0006007105628414687 -0.9478640217473424
Cl -0.26755835935030226 -1.463980223286334 0.9474850929827594
Cl -0.2666022358852725 1.4633440514753744 0.9480659227359302
Cl 2.372098247092126 -0.0010956086605980533 -0.4678385405713382
H 0.6026714763761495 0.8962995603118779 -1.7798300056884506
H 0.6019534086172665 -0.8962636220158967 -1.7803527781343258
*
