! pbe def2-sv(p) def2/J RI DEFGRID1 loosescf d4 GCP(DFT/SV(P)) printgap
%output
    printlevel normal
end
* xyz 0 1
C 3.979201863 -3.8304144118 -1.4700358089
C 2.9137235056 -2.9598936121 -2.1169652205
O 2.7220576167 -1.7397196968 -1.3750542567
C 1.8913148963 -1.7504147079 -0.3533016875
O 1.261739252 -2.7159988066 0.0165690628
C 1.7747896971 -0.3737257506 0.2760519273
C 0.9442856452 0.5208817886 -0.6462252336
H 1.501673612 0.7272650759 -1.5649733754
C 0.5608016961 1.8423291867 0.0006189815
O -0.5639399111 2.2953756696 -0.0629933644
O 1.575076186 2.401192425 0.5995685505
C 1.3609350075 3.6595869485 1.2750127067
C 1.4466425922 4.8235362821 0.3020533826
S -0.5892875876 -0.2838240369 -1.2196101938
P -1.8467816007 -0.0098703194 0.4739738662
S -1.0864192464 0.3321651969 2.24585253
O -3.0050142993 0.9919882298 0.0947854422
C -3.7395986724 0.9085213365 -1.1415504632
O -2.66501118 -1.3936610863 0.4227138036
C -2.0719185058 -2.617450714 0.8651023105
H 3.6532351342 -4.1486450961 -0.4823840917
H 4.1466152941 -4.7085046347 -2.0848819271
H 4.9090799519 -3.2766030626 -1.3750450322
H 1.9581753185 -3.4891618628 -2.1680357597
H 3.2187179686 -2.6284926438 -3.1094537819
H 2.7635128617 0.067610579 0.396143614
H 1.2903455088 -0.4736895391 1.2492106252
H 0.3835400153 3.6254876525 1.7647488141
H 2.1559063239 3.6979096448 2.0192824434
H 0.6419454922 4.7633504346 -0.4271872181
H 1.3523362827 5.7538627394 0.8521087233
H 2.4010665445 4.8085587667 -0.2166827396
H -3.0558811144 1.0019707565 -1.9853466792
H -4.4308738781 1.7466800959 -1.1134950599
H -4.2742792437 -0.0384568028 -1.192485503
H -2.8264863023 -3.3825892999 0.70548063
H -1.8160757726 -2.5437086909 1.922925541
H -1.1694893781 -2.8412205458 0.2938274653
*
