! pbe def2-sv(p) def2/J RI DEFGRID1 loosescf d4 GCP(DFT/SV(P)) printgap
%output
    printlevel normal
end
* xyz 0 1
C 3.7896352696 0.3918296225 -2.680024903
C 4.4403597282 -0.2292180177 -1.4615739979
O 3.7543150221 0.0845605669 -0.2356350394
P 2.1920788191 -0.0597442914 0.0135770721
S 1.0954508414 1.4339603103 -0.6516854317
O 2.1271348202 -0.2614224698 1.5838100465
C 1.9905067579 0.8371191599 2.5026684724
C 3.2606381904 1.6565396601 2.5720739373
S 1.8115871205 -2.0305814605 -0.6322721932
C 0.0738938311 -2.2157606822 -0.1580067631
S -1.1013673254 -1.4847149012 -1.3463276488
P -2.0464825045 -0.0229282067 -0.14617845
S -1.3844350134 0.0869039215 1.7035482478
O -3.5994513725 -0.3748676711 -0.2456530476
C -4.2198569737 -1.3853298475 0.5726858463
C -4.9758813689 -0.7456783305 1.721284314
O -1.9723173713 1.223553092 -1.1056811287
C -2.9172596075 2.3164869224 -1.1040350316
C -2.9421661559 3.0443761063 0.2234501155
H 4.3910331784 0.180040588 -3.5581817035
H 2.7923740298 -0.0233175877 -2.8252499108
H 3.6982261764 1.4685274559 -2.5555483401
H 5.4453347473 0.1654758063 -1.3012569013
H 4.478809145 -1.3179335553 -1.5564663551
H 1.1423012099 1.454355999 2.1881088662
H 1.7528741103 0.3578351799 3.4532956639
H 4.1029615883 1.0196127026 2.8278959298
H 3.4495780194 2.1172363978 1.6029054731
H 3.1487013921 2.433609632 3.3215205762
H -0.0883670536 -1.7605277902 0.8239704198
H -0.1058290543 -3.287140702 -0.1358552222
H -4.8917424842 -1.9201825042 -0.1007572374
H -3.4547188118 -2.0707554185 0.9474238147
H -4.2824311081 -0.2330907795 2.3847321561
H -5.6985743217 -0.0289835449 1.3415609508
H -5.4943693756 -1.5171597787 2.2810417307
H -2.5542416025 2.9601259129 -1.9069616635
H -3.9026775469 1.9185678629 -1.3561173158
H -3.2978635925 2.3785504694 1.0091965282
H -1.9398762643 3.3802882177 0.4819114731
H -3.6038208338 3.90205551 0.1559578589
*
