! r2scan-3c def2/J RI DEFGRID2 scfconv6 printgap
%output
    printlevel normal
end
%cpcm
    smd true
    smdsolvent "water"
end
* xyz 0 1
C 4.0693162646 -1.4996438121 -2.3783204396
C 4.4220963051 -1.5639899686 -0.9062316837
O 3.2531744447 -1.5706416499 -0.0690415196
P 2.2994685547 -0.3101942647 0.0785718873
S 3.2044954789 1.4320072394 0.153106316
O 1.4425566221 -0.7064264478 1.3527091142
C 1.8008562286 -0.2738924949 2.6817586503
C 3.0701950945 -0.9428215068 3.1647652144
S 0.8391435094 -0.569549545 -1.4269335004
C 0.132607884 1.0957703658 -1.2984837823
S -0.7663187372 1.3686835801 0.245023614
P -2.599425527 0.3895219668 -0.2908745933
S -2.8922648035 0.1082766869 -2.2020690777
O -3.7220358615 1.3081103395 0.3119896601
C -3.7488813816 1.7120340308 1.7066136846
C -4.4935338324 3.0274617255 1.7947288775
O -2.6942140609 -0.8652392806 0.6897592264
C -1.7913277148 -1.9817040006 0.7484181822
C -1.9001955043 -2.8824252005 -0.465360567
H 3.3618843041 -2.2850430436 -2.6325762467
H 3.6199538669 -0.5354768347 -2.6133310201
H 4.9709093864 -1.6200628762 -2.9703901044
H 5.0459082205 -0.7098792649 -0.6233421934
H 4.9301299881 -2.4957440567 -0.6541403793
H 1.9128333221 0.8150224653 2.6715814561
H 0.9385948479 -0.5504381758 3.2896640923
H 2.9800740308 -2.0228368171 3.0840931836
H 3.9143903839 -0.6137455343 2.5599297949
H 3.2506051654 -0.6692008888 4.1995752
H -0.5499751511 1.2102148693 -2.1411455679
H 0.9359454433 1.8316578158 -1.3257649506
H -4.2537582437 0.9230372511 2.2666888962
H -2.7193820624 1.8115992412 2.0628657715
H -4.5577426499 3.3325394207 2.8341675074
H -3.9709966357 3.7923513281 1.227085826
H -5.4946544273 2.9144105333 1.3888958345
H -0.7692386855 -1.609539211 0.867024547
H -2.0947818452 -2.505988725 1.6569018375
H -1.2777914225 -3.7587016937 -0.315229083
H -2.9318226596 -3.1920147686 -0.6117670605
H -1.5635235049 -2.3624222609 -1.3602721053
*
