! wb97x-v def2-tzvp def2/J RIJCOSX DEFGRID2 scfconv7 GCP(DFT/TZ) printgap
%output
    printlevel normal
end
* xyz 0 1
C 0.6228698085476713 1.7088857845249157 -0.03237019235595847
C 1.3931459314262846 0.4159177509696285 -0.2688540297282555
H 1.601096493556834 0.2973354656774782 -1.3422032512079505
C 0.5682820680913666 -0.7710307973722966 0.20542511432962307
H 0.4358423816163832 -0.6976289601014781 1.2971006420314006
C -0.7951055271943908 -0.7458320713762462 -0.47827939925377294
H -0.6490908911756924 -0.896878179937944 -1.553663362821599
C -1.4839558821942747 0.6123846834342321 -0.2933536233719076
H -2.3690890225700745 0.6757259238501049 -0.935954458778747
O -0.6412509953991122 1.6747470937423135 -0.7232428289228097
O -1.8474054584844648 0.7306409301058067 1.0697233907079475
O -1.6397282439254768 -1.8095542520993908 -0.04216907269673473
O 1.1955081601753073 -2.0148158941571865 -0.12842081739174524
O 2.6167497673604574 0.41541914407655206 0.4795493215806755
H 1.168610596575759 2.5631528598894064 -0.4409123467269194
H 0.47362348740094384 1.8651903272159522 1.0441714653314267
H -2.522776583654027 1.418794408533303 1.140398305274757
H -1.8393812887571312 -1.6532989400775804 0.8920564954662313
H 2.055916875861714 -2.0236834224912887 0.3117392897257993
H 3.2351022926509567 1.0084401066398592 0.033100305767946
*
