! pbe def2-sv(p) def2/J RI DEFGRID1 loosescf d4 GCP(DFT/SV(P)) printgap
%output
    printlevel normal
end
* xyz 0 1
C 5.2316241629 1.0244984544 -0.060044041
C 4.8124332623 0.6163130412 1.3351873956
O 3.9117654938 -0.5195707435 1.3557773484
P 2.5704338778 -0.6801600417 0.5533691424
S 1.4577795974 -2.0471131575 1.4072441128
O 3.1045268006 -0.9911841517 -0.9127483045
C 2.3058745558 -1.0613328483 -2.1047877925
C 1.5528921809 -2.3720935505 -2.2127740168
S 1.7096303891 1.2771862272 0.4571750734
C 0.0004290508 0.8163826842 0.7568774495
S -0.7721196316 0.1919027599 -0.781928005
P -2.7790250676 0.4949941695 -0.1698250466
S -4.1793499075 -0.0354660099 -1.430338281
O -2.8154477891 2.0087706087 0.3167008792
C -3.1794743901 3.0752239178 -0.5796721565
C -2.1226844342 3.3194330584 -1.6393046552
O -2.840482619 -0.1479231087 1.2831200653
C -3.306800642 -1.4928654164 1.4887144108
C -2.3901645792 -2.525384082 0.8627368271
H 4.379774167 1.417962085 -0.6112750081
H 5.9893459716 1.7986185092 0.0135770979
H 5.639949164 0.1717194298 -0.5959155345
H 4.3185352772 1.4437976484 1.8504189623
H 5.6614893901 0.2663981206 1.9244324852
H 1.6103015939 -0.2161424594 -2.1230866965
H 3.0330282633 -0.9569640849 -2.9123051901
H 2.2425517834 -3.2095686819 -2.1488609103
H 0.8245295206 -2.4590470136 -1.4095310507
H 1.029922934 -2.4056256124 -3.1628979337
H -0.5307621088 1.7052038825 1.088144797
H -0.0271654142 0.0262435588 1.5095864943
H -4.1380914513 2.8247453845 -1.0447620984
H -3.3012180098 3.9379125276 0.0770215428
H -2.4023867144 4.1877393612 -2.2273084229
H -1.1519665696 3.4954936108 -1.1815839173
H -2.0516133615 2.4553979189 -2.2994584752
H -3.3455266899 -1.5944167892 2.5740910273
H -4.3146942468 -1.5767312436 1.0700779999
H -1.37298288 -2.4273251483 1.2384121037
H -2.7559746989 -3.5192582962 1.0994680285
H -2.3806679892 -2.4045475743 -0.2207705306
*
