! pbe def2-sv(p) def2/J RI DEFGRID1 loosescf d4 GCP(DFT/SV(P)) printgap
%output
    printlevel normal
end
* xyz 0 1
C 4.1951584512 -0.3206870405 -2.3890867703
C 4.431036303 0.4441224205 -1.1026974445
O 3.7418984199 -0.1438993292 0.0131507296
P 2.156234564 -0.1796706201 0.1216533701
S 1.2650183778 1.4766804189 -0.4665586111
O 1.9362198585 -0.5699624894 1.6399741285
C 1.8860290428 0.4070260989 2.6981294859
C 3.269676913 0.8866902488 3.0852409989
S 1.6282711059 -2.0088685739 -0.7685290874
C -0.1286463383 -1.6967408979 -1.0831884283
S -1.0611494697 -1.2740577848 0.4200379384
P -2.15198887 0.4254439642 -0.2974658693
S -1.9218849107 0.9117272564 -2.1752473094
O -1.8051008828 1.5961281871 0.6969136193
C -1.8089275936 1.4950796628 2.1403031077
C -3.1803049401 1.771323588 2.7211352505
O -3.6589272249 0.0942673996 0.1074508034
C -4.5588727477 -0.6161458913 -0.7592681686
C -4.1158082446 -2.0426306018 -1.0137758454
H 4.8304525808 0.0842198412 -3.1703676278
H 4.4190833486 -1.3751956456 -2.2487243742
H 3.1543317094 -0.2206117989 -2.6959249572
H 4.097010189 1.4816770926 -1.2068902114
H 5.4801147033 0.4183865339 -0.8048538426
H 1.2638021109 1.2452827075 2.3660810929
H 1.3961572136 -0.1185401398 3.5192648577
H 3.9073748028 0.0375455825 3.3147215625
H 3.7141120079 1.4481997906 2.2655938361
H 3.1947706391 1.5299293816 3.9565175639
H -0.517190881 -2.6283970749 -1.4876443755
H -0.2445395317 -0.8773769936 -1.7990174243
H -1.4515501605 0.5003776476 2.4241770229
H -1.0870479512 2.2521783807 2.4546374371
H -3.1043984021 1.7915158325 3.8038899836
H -3.5453977957 2.732083178 2.3684099489
H -3.8821091574 0.9974884135 2.4239836144
H -5.5121818145 -0.5784788566 -0.2302271614
H -4.6339515979 -0.0648452356 -1.7015290283
H -3.9153043465 -2.5519353436 -0.0745007961
H -4.8988038958 -2.5690199343 -1.5500386311
H -3.2119814101 -2.0445234618 -1.621602291
*
