! pbe def2-sv(p) def2/J RI DEFGRID1 loosescf d4 GCP(DFT/SV(P)) printgap
%output
    printlevel normal
end
* xyz 0 1
C 3.1311927116 2.2691808357 -1.8669874465
C 3.1241358507 0.7619958303 -1.7141030884
O 3.3850565153 0.3945386788 -0.3343516207
P 2.2504442261 -0.0758503196 0.6622389694
S 2.9539589164 -0.5377146798 2.4223833426
O 1.4326440602 -1.2444403433 -0.0635331573
C 1.7322589836 -2.6335749656 0.1549713776
C 3.0332409987 -3.0289435704 -0.5117265601
S 0.8098753682 1.4591801921 0.5978950413
C -0.2650197639 0.8083783678 1.8984457325
S -1.1770639936 -0.6969068999 1.4391111384
P -1.8636923593 -0.1280060079 -0.4922105361
S -0.7525149904 -0.2793737338 -2.0925712443
O -2.3665836719 1.3508597004 -0.1593416525
C -2.3347317905 2.4115130634 -1.1303752534
C -3.5094725327 2.3085089608 -2.0815424817
O -3.1193824283 -1.0739581881 -0.6940186006
C -4.0950481023 -1.470325912 0.2970321836
C -4.8871865682 -0.2979812452 0.8361974401
H 4.0715239383 2.6751986374 -1.5044667165
H 3.0098178069 2.5168007908 -2.9167070477
H 2.314737247 2.7137631393 -1.3012534563
H 3.9376943835 0.303509692 -2.2783607552
H 2.1688231958 0.3331799678 -2.0311864282
H 1.7756754754 -2.8131157465 1.2343633656
H 0.8771560637 -3.1590099069 -0.2743515389
H 2.9900282026 -2.8137465858 -1.5766446169
H 3.8572746482 -2.4697299746 -0.0680544697
H 3.2053375574 -4.0903839366 -0.364069427
H -0.972705621 1.5980468785 2.1376598665
H 0.3392539047 0.5408517272 2.7665547252
H -2.36816054 3.3253702422 -0.5359711848
H -1.3882428866 2.3603012251 -1.6776943738
H -4.4466955318 2.3525701702 -1.5333151285
H -3.4704380541 3.1267956337 -2.793361203
H -3.4582646197 1.3642202755 -2.6229910416
H -4.7323288861 -2.1695419913 -0.2472981343
H -3.5751636587 -1.9955917995 1.1020710694
H -5.6523873233 -0.6697821554 1.5106298981
H -4.2348661115 0.3812649125 1.3799942735
H -5.3614708308 0.2419663427 0.0207962047
*
