! pbe def2-sv(p) def2/J RI DEFGRID1 loosescf d4 GCP(DFT/SV(P)) printgap
%output
    printlevel normal
end
* xyz 0 1
C 2.6076879109 -4.1242920264 0.1097888342
C 2.5368173997 -2.6605746338 0.49538004
O 2.1683689368 -1.9109809815 -0.678963495
C 2.1250595491 -0.6027257703 -0.5996045182
O 2.3590890795 0.041729065 0.4040867409
C 1.7587490686 0.0415549211 -1.9244417329
C 0.5200035162 0.9274681597 -1.759115827
H 0.4249950879 1.5975437874 -2.6164035345
C 0.6062961758 1.7492053739 -0.4873546613
O -0.1678470786 1.5907919375 0.440517188
O 1.5583786942 2.630626233 -0.5352541768
C 1.7979261641 3.4480012885 0.6322503242
C 0.8178613294 4.6069274 0.7015080081
S -1.025392247 -0.0426456252 -1.7287428062
P -1.59794893 -0.3108861677 0.2812580806
S -0.4843733327 -1.0072682996 1.7540312595
O -2.6068274801 0.88957536 0.5751001039
C -3.4951045518 0.8245226903 1.700096626
O -2.7231095122 -1.4343300902 -0.0438327627
C -2.4027495359 -2.8142995384 -0.2131223354
H 1.6407015919 -4.4590336949 -0.2532642849
H 3.3481357827 -4.2687663405 -0.6711702719
H 2.8831424368 -4.7084076536 0.9812027955
H 3.4987243352 -2.2819777846 0.8545359216
H 1.7858005993 -2.474666215 1.2707343312
H 1.5731428179 -0.7279824805 -2.6716213066
H 2.5980773024 0.6703292504 -2.2280025609
H 1.7232005405 2.8087314903 1.5162595514
H 2.8227731205 3.7943484381 0.5021612893
H 0.8711711106 5.1978073008 -0.208632326
H -0.196843296 4.2351334795 0.8272586622
H 1.0686289415 5.2333865685 1.5509933628
H -3.9097188958 1.8246741382 1.797728347
H -2.9437396066 0.5491571227 2.6011977867
H -4.2805093561 0.0939280091 1.5087561145
H -1.6970049034 -3.1282504564 0.5594400057
H -1.9725272988 -2.9777580543 -1.20108188
H -3.3418119796 -3.3521963056 -0.1103241693
*
