! pbe def2-sv(p) def2/J RI DEFGRID1 loosescf d4 GCP(DFT/SV(P)) printgap
%output
    printlevel normal
end
* xyz 0 1
C 4.9405648624 -0.9969584324 -2.7033363212
C 4.5962091609 -0.8339674387 -1.2376725691
O 3.2331377085 -0.354917654 -1.1505875988
P 2.7212333443 0.3930417967 0.1523689372
S 3.8498388383 1.8441003342 0.8267020759
O 2.5633679921 -0.8361298036 1.1611198773
C 2.4973839477 -0.6464794906 2.5843652335
C 1.1673110843 -0.0586752756 3.0084034709
S 0.79632596 0.9093409302 -0.5270247118
C 0.1584386182 -0.7729320601 -0.8607280488
S -1.1175493384 -1.2746604934 0.3096025504
P -2.6378712575 0.0042820763 -0.4665172947
S -2.7242823742 0.1307095131 -2.4152229482
O -2.3679807826 1.4100157994 0.1931920945
C -2.2606832468 1.635956129 1.6196700848
C -3.5863423999 2.0872062013 2.1969798058
O -3.9604541443 -0.488630697 0.2637477643
C -4.790553658 -1.5416503303 -0.2613985884
C -4.0867825774 -2.8829524597 -0.2675032144
H 4.2558217614 -1.6978379328 -3.171998779
H 4.8659286578 -0.040208239 -3.2128329316
H 5.9554169102 -1.3710964825 -2.7907794467
H 5.252088662 -0.1052855063 -0.749148094
H 4.6540869579 -1.7842245209 -0.7017431414
H 2.6464976674 -1.6467088153 2.9925359473
H 3.3220382505 0.0090490033 2.8825353616
H 1.1400083392 0.0287197103 4.0895339033
H 1.0493792804 0.9326243231 2.5702865555
H 0.3519860949 -0.6966203496 2.6755055823
H 0.9724995921 -1.4875985177 -0.7869710959
H -0.2721731975 -0.7566419784 -1.8625020624
H -1.9142964899 0.7170482509 2.1005452449
H -1.4979527358 2.4117753471 1.7122068239
H -4.3284983796 1.2998325733 2.09747647
H -3.451827324 2.3241560454 3.2477221875
H -3.9391631785 2.9709415113 1.6724426849
H -5.6563311279 -1.5442248176 0.402293426
H -5.0986398884 -1.2637319483 -1.2738168837
H -3.2793224617 -2.8773443998 -0.997823886
H -3.672696818 -3.0986940206 0.7141677508
H -4.7976008808 -3.6572798007 -0.5377128446
*
