  23
        -30.29042537
 C          1.7192976139        1.3918939991        0.6170547647
 C          1.6646036047        0.2120510886       -0.3517906294
 C          3.0143737393        0.0395225391       -1.0470078940
 C          1.2889957228       -1.0954390559        0.3567343076
 C         -0.1035839581       -1.0952126479        0.9814829896
 O         -1.1107653056       -0.9408997058       -0.0291382810
 C         -1.8337048970        0.1704769295       -0.0649441561
 O         -1.7230483104        1.0766172802        0.7367898232
 C         -2.8033219845        0.1585833867       -1.2089732454
 H          2.3811246628        1.1695069586        1.4510311593
 H          0.7316335038        1.6284655490        1.0068346755
 H          2.0934072129        2.2765705447        0.1071897104
 H          0.9060586499        0.4240823992       -1.1148475531
 H          3.7912181922       -0.1619908422       -0.3132952111
 H          3.2798625258        0.9434323685       -1.5892985901
 H          2.9820322080       -0.7869953847       -1.7525468875
 H          2.0079906053       -1.2966297701        1.1517774257
 H          1.3363028765       -1.9124540835       -0.3654555054
 H         -0.3031788399       -2.0586268570        1.4560670960
 H         -0.2171992770       -0.2937431415        1.7156333011
 H         -2.5952450305        1.0072242661       -1.8557837380
 H         -3.8112710876        0.2766787902       -0.8199770990
 H         -2.7137152498       -0.7705513247       -1.7609103371
