! wb97x-v def2-tzvp def2/J RIJCOSX DEFGRID2 scfconv7 GCP(DFT/TZ) printgap
%output
    printlevel normal
end
%cpcm
    smd true
    smdsolvent "water"
end
* xyz 0 1
C -0.5970398991920738 -0.01050586568621954 -0.47143375445539987
C 0.597010180356009 0.010523874273681788 0.47142222022866387
O 1.833605230350003 -0.011710695301721837 -0.25927007719897976
O -1.833638897207371 0.011725836435616607 0.25925380037667434
H -0.5986278391126976 -0.9388559282792343 -1.0530627885810058
H -0.5390528617169255 0.8350984404592746 -1.1706898931430687
H 0.5390241627726131 -0.8350789355431743 1.1706797298350151
H 0.598600149167353 0.9388748681734909 1.0530510267386146
H 1.8855514201718206 -0.8648138677883092 -0.7099386155618451
H -1.8855211501526685 0.8647746931999111 0.7100358233630737
*
