! pbe def2-sv(p) def2/J RI DEFGRID1 loosescf d4 GCP(DFT/SV(P)) printgap
%output
    printlevel normal
end
* xyz 0 1
C 4.8855023632 1.3235381419 0.01412913
C 3.5921598624 1.4910067875 -0.7548978918
O 2.8649503237 0.2479077679 -0.8498156177
P 2.1665593017 -0.4059055439 0.4112383236
S 1.5409814588 0.8371856193 1.7996809967
O 3.2716015909 -1.4247466725 0.9298763675
C 3.1838450522 -2.0507583241 2.220256799
C 2.0204597161 -3.0183558002 2.2956627189
S 0.7750227417 -1.6606500363 -0.585080322
C 0.1469399199 -0.4871612469 -1.822302011
S -0.5250531243 1.0315207793 -1.115420408
P -2.5443101969 0.4019878382 -0.7746242428
S -3.0900665056 -1.1357565361 -1.8558895506
O -3.4476224558 1.6430021419 -1.1189017454
C -3.6074598124 2.834207223 -0.3099624627
C -2.3114174001 3.5954676024 -0.129552326
O -2.7342689589 0.3226992068 0.804236563
C -2.0064340567 -0.5084585047 1.7201352043
C -2.2729326085 -1.9852252788 1.5122542241
H 5.4765268974 0.5190718276 -0.415688711
H 5.4501889224 2.2497568038 -0.0245208549
H 4.6690125208 1.0838587447 1.0544031103
H 3.7707545493 1.7709937118 -1.7938431487
H 2.9467553953 2.2342650524 -0.2755974548
H 4.1424831954 -2.5580196272 2.3346929429
H 3.0818023785 -1.2676342361 2.9789625663
H 2.0831215324 -3.7502851527 1.4944821041
H 2.0324990314 -3.5273596096 3.2539718776
H 1.0820237297 -2.4728264289 2.1944024768
H -0.6475919997 -1.0137267689 -2.3573097003
H 0.9557771516 -0.2020740379 -2.4891331315
H -4.3391865989 3.4164517488 -0.8721010546
H -4.0261604708 2.5389480467 0.653694336
H -1.8646591327 3.82005381 -1.0950082501
H -2.5154307414 4.524025728 0.3946878793
H -1.6019328493 3.0126826291 0.456732537
H -0.9390743243 -0.2807748929 1.6322071861
H -2.3576891849 -0.1767182611 2.6992995499
H -1.8557350304 -2.3242151469 0.5656704106
H -1.814443673 -2.5474378418 2.3196727503
H -3.3435692172 -2.1739256747 1.5061916873
*
