! pbe def2-sv(p) def2/J RI DEFGRID1 loosescf d4 GCP(DFT/SV(P)) printgap
%output
    printlevel normal
end
* xyz 0 1
C 2.2164522606 1.3630334815 -2.9825167353
C 2.5144951181 0.4536805198 -1.810668773
O 1.7764711033 0.9645719554 -0.6690596073
P 1.8057434649 0.293853945 0.7527671433
S 1.1013846427 1.4269104935 2.1782246107
O 3.3581662299 -0.0363517451 0.8955831112
C 3.8889791794 -0.5926490823 2.115742655
C 5.3998605902 -0.502213583 2.0499584301
S 0.9814549315 -1.6761263934 0.6463693917
C -0.4932350091 -1.4678042022 1.6788871386
S -2.0701118499 -1.5545161257 0.7812532694
P -1.6738186731 -0.1897355684 -0.8122162124
S -0.6644109123 -0.9218047932 -2.3227965714
O -1.015570597 1.0963275618 -0.1771759171
C -1.753917397 2.2296731102 0.3535763092
C -2.5274869215 1.8897065781 1.6088951486
O -3.1258808929 0.3085037436 -1.2080987656
C -4.0301964906 -0.5471425624 -1.9380026611
C -5.1347227215 0.3204167953 -2.5054199402
H 2.7926386954 1.0334663229 -3.840829376
H 1.1579844889 1.3151842787 -3.2255928633
H 2.4788323573 2.388128739 -2.7370516288
H 3.5755254477 0.4519348814 -1.5563564555
H 2.1803801373 -0.5686481379 -2.0086874229
H 3.4886335982 -0.0215486274 2.9599426989
H 3.552466546 -1.6303411262 2.1928841326
H 5.8193480888 -0.9174157802 2.9602882468
H 5.769354798 -1.06166844 1.195336438
H 5.7078195765 0.5352277584 1.9531503189
H -0.4122256636 -0.5084533584 2.1982064389
H -0.5205336908 -2.2944458699 2.3846546468
H -0.9685500277 2.9596456429 0.5569851981
H -2.4149347198 2.5954824328 -0.4327186872
H -3.0448208552 2.7815521864 1.9483427506
H -3.2582190938 1.1093240686 1.4088226273
H -1.8499525834 1.5602986199 2.3932033102
H -3.4679712871 -1.0540215662 -2.7293306213
H -4.4224290558 -1.2948311096 -1.2435800567
H -5.8343599212 -0.3076322564 -3.046880929
H -5.6573462233 0.831581604 -1.7022346403
H -4.7185175178 1.059697857 -3.184079944
*
