! pbe def2-sv(p) def2/J RI DEFGRID1 loosescf d4 GCP(DFT/SV(P)) printgap
%output
    printlevel normal
end
* xyz 0 1
C 5.8107149285 -0.3042361806 -0.4033238892
C 4.3923550766 -0.6583187327 -0.8010871332
O 3.5019777932 0.2556238672 -0.1285273772
P 1.9832101191 0.406868252 -0.5846646262
S 1.7404361543 0.7565885608 -2.4929556382
O 1.5059629274 1.5695460806 0.3614276199
C 1.7810766402 1.5671462483 1.7876508264
C 0.9697437324 2.6825968487 2.4108609888
S 1.1624875851 -1.4233257827 0.123673471
C -0.0945355121 -1.7497812245 -1.1531937829
S -1.7568880529 -1.9226043449 -0.477512424
P -1.9862398215 0.065603297 0.2488160592
S -1.4568494703 1.4674293529 -1.0174796646
O -1.1775653183 0.1733428129 1.6003674369
C -1.5885231241 -0.358864454 2.8874536693
C -1.5597714108 -1.8723863646 2.9280305682
O -3.4893085223 0.1196497767 0.7567786872
C -4.5918173188 0.4531974327 -0.1052269298
C -4.8212263463 -0.5899025392 -1.1790979439
H 5.9281620729 -0.391266931 0.6727963659
H 6.4972899047 -0.9839324874 -0.8969222596
H 6.0381641635 0.715089853 -0.7025947332
H 4.1317875246 -1.6745549469 -0.4930278374
H 4.239121774 -0.5594417078 -1.8808019573
H 1.5000406961 0.5883195095 2.187223799
H 2.8531143557 1.7212914849 1.92234079
H -0.0882369458 2.5223600843 2.2190611585
H 1.1484674673 2.7008621504 3.4811121933
H 1.256631379 3.6369879503 1.9784178689
H 0.1415399084 -2.7006602041 -1.6239715245
H -0.0624264276 -0.9325966797 -1.8798631029
H -0.8600717308 0.0732530889 3.5757792201
H -2.585628349 0.022832379 3.1120198848
H -1.7174620025 -2.1975469961 3.9516814917
H -2.3442876014 -2.2876143774 2.2999415708
H -0.5980529941 -2.2429092602 2.5795830068
H -5.4401289941 0.5223816424 0.5773822292
H -4.39329249 1.4307454032 -0.5552466499
H -3.9965152815 -0.5800083991 -1.8901137358
H -4.8927855832 -1.5807496662 -0.7379203089
H -5.7412552573 -0.361945831 -1.7077232904
*
