! pbe def2-sv(p) def2/J RI DEFGRID1 loosescf d4 GCP(DFT/SV(P)) printgap
%output
    printlevel normal
end
* xyz 0 1
C 3.6441435996 -1.2152133189 -2.6909758829
C 3.9905277785 0.1060056983 -2.0366491404
O 3.5869823507 0.1543535228 -0.655582538
P 2.0631570275 0.112947513 -0.2071773681
S 0.8697563164 1.1730372605 -1.3395465564
O 2.099611219 0.6610396616 1.2681939046
C 2.907351496 0.1163693506 2.3401726128
C 4.2398968264 0.8302467916 2.4328665645
S 1.717079119 -1.9797093752 -0.0164922837
C 0.0254445009 -1.9721869818 0.6298531406
S -1.2217242251 -1.5099635692 -0.6154378666
P -2.0222134092 0.1939607163 0.3324510408
S -1.0680760392 0.9603501201 1.8604227023
O -3.4287447753 -0.4476483232 0.759389024
C -4.230726552 0.0886022249 1.8231782966
C -4.8779233789 1.4016052037 1.4305590979
O -2.3243747565 1.2770140195 -0.7806956155
C -2.5680267446 1.0223847779 -2.1817065841
C -3.7613800049 0.1190344747 -2.4094204003
H 4.0267348542 -2.0434344308 -2.0997345795
H 2.563008076 -1.3146826924 -2.7778244581
H 4.0801710801 -1.2474079257 -3.6842426917
H 3.5083846196 0.9349609585 -2.5637635857
H 5.0686519921 0.2673004153 -1.99699418
H 2.301761144 0.2794045823 3.2343819559
H 3.0455381604 -0.9554544117 2.1713275012
H 4.081815611 1.8995701218 2.544583348
H 4.7810350477 0.4555385895 3.2960721554
H 4.8259756003 0.6529943532 1.5351871081
H -0.0479795356 -1.2744238613 1.469047143
H -0.1737139098 -2.9940234549 0.9412441606
H -4.971489639 -0.6888052248 2.0149811723
H -3.5947402383 0.2238669231 2.7043106292
H -5.489519063 1.7634838213 2.2510403439
H -4.1053248346 2.1388803762 1.210863884
H -5.4989693466 1.2700661471 0.5484883781
H -2.7278434379 2.0211050459 -2.5911150197
H -1.6565903658 0.5988339886 -2.6126772781
H -3.5867219347 -0.8577437924 -1.9603634159
H -4.6549899408 0.5552567903 -1.970604102
H -3.9098328451 -0.0049468808 -3.4774598061
*
