! pbe def2-sv(p) def2/J RI DEFGRID1 loosescf d4 GCP(DFT/SV(P)) printgap
%output
    printlevel normal
end
* xyz 0 1
C 5.8036831517 -0.6134787667 -0.9078219296
C 4.3179058149 -0.8986096866 -0.9964306471
O 3.6187678928 0.1841429004 -0.35570724
P 2.0694829515 0.4411302475 -0.6204941103
S 1.6262152268 0.5482266609 -2.5234770606
O 1.8468221109 1.7905491603 0.151066491
C 1.6874790637 1.9482379929 1.579772199
C 2.8335817111 1.3579063258 2.3710304986
S 1.134374871 -1.1385966087 0.4797267759
C 0.0786507021 -1.8485324894 -0.8178837048
S -1.623803671 -2.1466600788 -0.273492881
P -2.1502044255 -0.2113718015 0.352774793
S -1.3192824895 1.3577024754 -0.5081110846
O -1.8536668813 -0.3700336607 1.8987437625
C -1.9595030837 0.7243434723 2.8347838629
C -3.3542862029 0.8128172237 3.4201064219
O -3.739491981 -0.1957742843 0.310398781
C -4.4795169452 0.2102846146 -0.8531815407
C -4.2690164073 -0.7294402569 -2.0225586573
H 6.0332843127 0.3204324993 -1.4131189379
H 6.1063348135 -0.5352176834 0.1321441167
H 6.3500991135 -1.4215741667 -1.382753256
H 4.0577971522 -1.8254904203 -0.4773262922
H 3.9839027792 -0.9631734328 -2.0378429316
H 1.6201830103 3.030395236 1.7019512934
H 0.7362190659 1.4886464163 1.8633873879
H 3.7783825585 1.7615825668 2.0170921406
H 2.7039804305 1.6064441617 3.4198568503
H 2.8477601523 0.2745439143 2.2617751352
H 0.4685211486 -2.8255666388 -1.0928693219
H 0.0909713484 -1.1673337228 -1.6745233926
H -1.2201331946 0.4940083007 3.6044030776
H -1.6876799487 1.6542973518 2.322407144
H -4.0760305323 1.0578417485 2.6448636585
H -3.628962288 -0.1390651341 3.8655034334
H -3.3714677231 1.5863505334 4.18160369
H -5.5173061332 0.2086874921 -0.517147625
H -4.1737572535 1.2275379487 -1.118474901
H -3.2418867797 -0.6552983119 -2.3794601923
H -4.463003847 -1.7563027093 -1.7228737212
H -4.9395098864 -0.4546680285 -2.8305835499
*
