! wb97x-v def2-tzvp def2/J RIJCOSX DEFGRID2 scfconv7 GCP(DFT/TZ) printgap
%output
    printlevel normal
end
%cpcm
    smd true
    smdsolvent "water"
end
* xyz 0 1
C 0.5399706238352429 -1.28498945871408 -5.32822999447107e-05
C -0.8428298877553956 -1.110048197194209 -0.00013248165991743707
C -1.3828132418824444 0.17495827023064475 -9.817504400276664e-05
C -0.5399719822346244 1.2849911467256636 3.228710707231084e-05
C 0.8428316311601969 1.1100492894793037 8.760385251587316e-05
C 1.3828127087301283 -0.17495937758920949 3.6618980723058374e-05
H 0.9604504582847627 -2.2860135573444955 -9.48303482159797e-05
H -1.499381355241205 -1.974831401240334 -0.00019765724198235707
H -2.460002052919839 0.31117939126044697 -0.00012616584014376036
H -0.9604508107215212 2.286017829799774 4.347961159191457e-05
H 1.499384057249825 1.974833877388913 0.00015555757479342747
H 2.4600014462466526 -0.31117871080587073 9.061824600033639e-05
*
