! pbe def2-sv(p) def2/J RI DEFGRID1 loosescf d4 GCP(DFT/SV(P)) printgap
%output
    printlevel normal
end
* xyz 0 1
C 3.2330514496 -2.9788036049 1.290027441
C 3.0322253585 -1.4745278531 1.2859202002
O 2.6418731038 -1.0658775948 -0.0395364101
C 1.6200621791 -0.2710776927 -0.2010258763
O 0.9878439221 0.2597945711 0.6996663691
C 1.3138395611 -0.0094066731 -1.6583115566
C 0.1778383311 0.997156479 -1.760973689
H 0.1368041409 1.4254054876 -2.7664019092
C 0.3406271143 2.1391769789 -0.7637438798
O -0.5684512524 2.601820383 -0.1141403986
O 1.5694526946 2.6138770848 -0.7994833684
C 1.9122879652 3.6987537194 0.0875199128
C 2.5610839327 3.163724377 1.3535338536
S -1.487009289 0.27755171 -1.5721318473
P -1.5488877717 -0.9128042688 0.1888061895
S -0.3913567228 -2.4865264518 0.3164674885
O -1.5982138046 -0.0522531114 1.5108515927
C -2.5504425725 1.002534803 1.7472036237
O -3.0940451315 -1.3337773438 0.0802956701
C -3.5491745126 -2.2681528931 -0.9033458115
H 3.9752239954 -3.2553456406 0.5478432133
H 3.5669500557 -3.2931330206 2.2730468115
H 2.2947464011 -3.4761039005 1.0544344152
H 3.9614831361 -0.9469710532 1.5157938713
H 2.2516484675 -1.170825621 1.9895635107
H 1.0577030789 -0.9520156557 -2.1456542079
H 2.2147848651 0.386822816 -2.1293582878
H 2.6030791293 4.3176129982 -0.4860278944
H 1.0010863931 4.2563176623 0.3207530151
H 1.8888263083 2.4608470402 1.8430216266
H 3.4877688123 2.6491505493 1.1140742307
H 2.7698770362 3.9864320098 2.0290591676
H -3.5467269023 0.6851284834 1.4463057206
H -2.2453657429 1.8921192474 1.1965607683
H -2.5069739537 1.183163937 2.8180777674
H -2.8663097439 -3.1179059802 -0.9549874689
H -3.6128666357 -1.7801534526 -1.8749973886
H -4.5316376988 -2.5909010437 -0.5681546929
*
