! pbe def2-sv(p) def2/J RI DEFGRID1 loosescf d4 GCP(DFT/SV(P)) printgap
%output
    printlevel normal
end
* xyz 0 1
C 3.9554294449 0.6340552898 -2.4571957921
C 2.6902214847 -0.192245399 -2.351214875
O 2.5159456499 -0.7118606439 -1.0189600221
P 2.0612400725 0.2137687898 0.2027053191
S 1.1098211309 1.854859248 -0.2723088366
O 3.3640523852 0.6132930723 1.0105789337
C 4.3623356539 -0.3442208778 1.4436365314
C 4.2674628904 -0.565689153 2.9396800508
S 1.1912790653 -1.2738780541 1.4215350097
C 0.0762691655 -2.0982316383 0.2267480106
S -0.6483408606 -1.0152992396 -1.0241583851
P -2.1628894015 -0.1060872156 0.1832857833
S -1.687134852 0.5704314416 1.9531750265
O -3.259616531 -1.230441371 0.2978900986
C -3.9096309079 -1.8565748134 -0.8379884577
C -5.2134238758 -1.1588772264 -1.1659539196
O -2.8038483513 0.9379117619 -0.8232699893
C -2.2904808955 2.2678092158 -1.0278809616
C -3.436245138 3.1411313898 -1.4956876423
H 3.884530165 1.4968448172 -1.7949370787
H 4.8211868888 0.0409672514 -2.1745161933
H 4.0746275686 0.982371334 -3.4781314228
H 2.7271043982 -1.0823953606 -2.9801993418
H 1.8122227961 0.4086192086 -2.6072263024
H 4.2248664898 -1.2779582818 0.8929867967
H 5.3170061761 0.1099190128 1.1723546787
H 5.0631655466 -1.2344045049 3.2521721615
H 4.3661887012 0.3816908662 3.4625070913
H 3.3069181825 -1.0068721225 3.1985711733
H -0.7126434337 -2.5524310816 0.8246829
H 0.6461522778 -2.8492776495 -0.3147724429
H -3.2254385986 -1.8408896722 -1.69068771
H -4.0807162634 -2.8851785534 -0.5156156983
H -5.7139673133 -1.6999708067 -1.962896868
H -5.8543404856 -1.1368722447 -0.2888277147
H -5.0251997865 -0.1383443813 -1.4875646567
H -1.8615188606 2.6319009147 -0.0885417905
H -1.4912269344 2.2165122184 -1.7716057941
H -4.2149526834 3.1723303898 -0.7384740186
H -3.0643791298 4.1455634272 -1.6683480475
H -3.8515300706 2.7471453326 -2.4187607529
*
