! wb97x-v def2-tzvp def2/J RIJCOSX DEFGRID2 scfconv7 GCP(DFT/TZ) printgap
%output
    printlevel normal
end
%cpcm
    smd true
    smdsolvent "water"
end
* xyz 0 1
C -0.6745221286033629 -0.5320670256076999 0.3518251111479366
C 0.667127970783253 -0.5561683840694642 -0.3277714725543295
O 1.4337776650459 0.5808483753394749 0.10792442600847738
O -1.4256457819737076 0.5948585619347867 -0.13393628397948945
H -0.5401357179775195 -0.4634919479600518 1.4403243540253639
H -1.1949869670932984 -1.4724352845516053 0.1243972658783703
H 0.5332865590403988 -0.5336550206899889 -1.4182662991046429
H 1.1747927687581114 -1.4926133619757462 -0.059078912620415834
H 2.249345427001596 0.5936540152642111 -0.4079197022523107
H -2.240495913715242 0.6418783472452232 0.3809580506415641
*
