! r2scan-3c def2/J RI DEFGRID2 scfconv6 printgap
%output
    printlevel normal
end
%cpcm
    smd true
    smdsolvent "water"
end
* xyz 0 1
C 5.2627755032 -2.7598495993 -0.4071097117
C 4.8556300164 -1.7862101667 -1.5012112142
O 3.4433074653 -1.8860727773 -1.7771345572
C 2.6084263404 -1.1701804396 -1.0568071406
O 2.9377563083 -0.3847670639 -0.1916064951
C 1.1680773374 -1.4495251204 -1.4266295028
C 0.2745444859 -0.359969968 -0.8521098906
H 0.3855501597 0.5935304492 -1.3738215492
C 0.5610586306 -0.1577126483 0.6261952337
O 0.5740386047 -1.0669272668 1.4283138389
O 0.6876290281 1.1180248168 0.9108965684
C 1.0125150167 1.506118968 2.2592723529
C 2.4381931802 2.02792098 2.3040638171
S -1.4702678954 -0.8878041192 -0.9748102495
P -2.3256170933 0.7647612407 0.0524341754
S -1.7760689128 2.5445757201 -0.5327907242
O -3.8842208276 0.4544453548 -0.0940276586
C -4.5508040016 0.6072176851 -1.3549748366
O -2.1156490935 0.5375817553 1.6048894512
C -2.5277813674 -0.6610170949 2.2971892018
H 6.3358278112 -2.7032948165 -0.2573851624
H 4.7624908905 -2.5058658227 0.5250790314
H 4.9920148451 -3.7736636757 -0.6882664439
H 5.334629601 -2.0291486051 -2.4495325911
H 5.0821712242 -0.7567059767 -1.2099882305
H 0.8999019826 -2.4121439446 -0.9817061294
H 1.0608579691 -1.5290925376 -2.5071955005
H 0.2889173223 2.2812905616 2.5207818703
H 0.8839023809 0.6352457503 2.9081664195
H 2.6941372556 2.2900390949 3.3250895884
H 3.1183993093 1.2599837583 1.9428181845
H 2.532779067 2.9036249211 1.6686403735
H -4.2764539407 -0.2122742541 -2.0182450242
H -4.2791386307 1.5617619614 -1.8077141033
H -5.6134154305 0.5815648103 -1.1275618701
H -3.4180066143 -1.0815067205 1.8353500383
H -2.7346541286 -0.3483583064 3.3173781411
H -1.7069057841 -1.3788563284 2.2766422928
*
