! wb97x-v def2-tzvp def2/J RIJCOSX DEFGRID2 scfconv7 GCP(DFT/TZ) printgap
%output
    printlevel normal
end
* xyz 0 1
C 0.6709560954148037 1.6783959676013227 -0.023980790809732238
C 1.3989712876894431 0.36554521132271117 -0.2702375657663449
H 1.6015329655172508 0.25263406669955785 -1.3462771438148988
C 0.525904655405987 -0.7911604728215494 0.18810477022040978
H 0.38624906444893664 -0.7246365847762415 1.2783057292290945
C -0.8308710702226143 -0.7105755226932625 -0.5110420597516746
H -0.6787502800780769 -0.8395086895314152 -1.5880969379816532
C -1.4803456521344363 0.6584195486527323 -0.2951965312617831
H -2.3630715335622825 0.7714398480494008 -0.934261962335933
O -0.5954031596088389 1.6959453540362461 -0.7075002133600214
O -1.835186352481596 0.7607047166790943 1.0707263857567992
O -1.6976850924928986 -1.7717451812320502 -0.10485612232501887
O 1.2031277381516987 -2.0099988191408773 -0.1448128606706438
O 2.6288620584703635 0.43140865199013906 0.461130039351825
H 1.2443148964140123 2.514871925324714 -0.42910617279386615
H 0.5310162676027701 1.8327275950584405 1.054072255199047
H -2.4842427117330153 1.472074550728388 1.1573960324376271
H -1.9201674171169396 -1.6197154558957472 0.8255482099557633
H 0.6658144056728016 -2.7383900316551046 0.19546278839160444
H 3.108150536562705 -0.3908984721942052 0.29291799588219897
*
