  10
        -13.50478703
 C          1.8653963091       -0.0241842994       -0.2302544502
 C          0.7019200713        0.3077286342        0.2962017656
 C         -0.5411189429       -0.5262868034        0.1890028651
 O         -1.6849307898        0.2311753107       -0.1639922205
 H          2.7368290689        0.5971416978       -0.1203131013
 H          1.9946673252       -0.9412461963       -0.7811390226
 H          0.5767002375        1.2305600875        0.8461447454
 H         -0.7787655360       -0.9540675343        1.1689773062
 H         -0.3913865751       -1.3501378812       -0.5211147404
 H         -1.5369316423        0.6407679243       -1.0274630397
  10
        -13.50456387
 C          1.5022017698        0.3014893707       -0.4911266936
 C          0.8281403619       -0.2222428858        0.5153733205
 C         -0.6646856625       -0.3833439757        0.5603539127
 O         -1.3620713459        0.2177384586       -0.5071243345
 H          2.5738382990        0.3902124409       -0.4725006026
 H          1.0052330698        0.6467753726       -1.3825400379
 H          1.3322073938       -0.5863478840        1.3994869089
 H         -1.0384524225       -0.0030586619        1.5232646985
 H         -0.9119317263       -1.4492228515        0.5090437641
 H         -1.1883985203        1.1690610320       -0.4931544455
  10
        -13.50424110
 C          1.8564126391        0.1053852136        0.2415806603
 C          0.7076209235        0.1190698168       -0.4072949015
 C         -0.5423758394       -0.5587947593        0.0708279551
 O         -1.6651028874        0.3031536801        0.1072886653
 H          2.7333502840        0.5946440060       -0.1453480096
 H          1.9663276245       -0.4038287315        1.1841367451
 H          0.6157056430        0.6393755935       -1.3520354770
 H         -0.4170631709       -0.9211876938        1.0931508977
 H         -0.7587342740       -1.4208139533       -0.5801418223
 H         -1.7991128835        0.6837737191       -0.7721180782
  10
        -13.50286815
 C          1.8755324311        0.0763484874        0.1901665847
 C          0.6877879823        0.2109492246       -0.3674165730
 C         -0.5288726390       -0.5664956503        0.0328408416
 O         -1.6393126487        0.3129760749        0.0901701346
 H          2.7247195385        0.6458259734       -0.1439465417
 H          2.0478379742       -0.6178446488        0.9959090721
 H          0.5162252690        0.9167657866       -1.1676357608
 H         -0.3670020200       -1.0494582919        1.0050532896
 H         -0.7115196829       -1.3473768016       -0.7218934417
 H         -2.4315732577       -0.1889392815        0.3220062197
  10
        -13.50276331
 C          1.4812656087        0.3499807824       -0.4891586535
 C          0.8350824903       -0.2481752457        0.4927031089
 C         -0.6566807395       -0.3694617490        0.5836521484
 O         -1.2906651080        0.2440093666       -0.5185703923
 H          2.5549712666        0.4113300686       -0.5093267717
 H          0.9460342008        0.7994234967       -1.3078427164
 H          1.3592299052       -0.7038599891        1.3213831368
 H         -0.9861832587        0.0971592878        1.5249016317
 H         -0.9162594291       -1.4385762730        0.6294350987
 H         -2.2473865019        0.1506969216       -0.4241977097
