! wb97x-v def2-tzvp def2/J RIJCOSX DEFGRID2 scfconv7 GCP(DFT/TZ) printgap
%output
    printlevel normal
end
%cpcm
    smd true
    smdsolvent "water"
end
* xyz 0 1
C -0.6437424536000721 -0.9882312963508562 -0.3839393411387387
C 0.6435056365895852 -0.9880259539013803 0.3842464874834025
Cl 1.7186440852393288 0.4213572949564905 -0.06523473551701768
Cl -1.7188569140828058 0.4214401134464407 0.06470151622342514
H -1.2000465400029514 -1.8953861599880188 -0.1331904197283041
H -0.48783123814280605 -0.9360808576191567 -1.4620691386013165
H 0.48759255937779683 -0.9352168181941186 1.462343289985012
H 1.1997904780491628 -1.8953438169394299 0.13404282072308304
*
