! pbe def2-sv(p) def2/J RI DEFGRID1 loosescf d4 GCP(DFT/SV(P)) printgap
%output
    printlevel normal
end
* xyz 0 1
C 4.252647161 0.6515922769 -2.2658106262
C 4.5500672271 -0.1479292531 -1.0150183371
O 3.6841535267 0.1936301107 0.0842231393
P 2.0974389882 0.189947691 0.0323352372
S 1.1861913251 1.7141113031 -0.7907463963
O 1.7176576388 0.1293763214 1.5629437709
C 2.2460262948 -0.8609185072 2.4802386433
C 3.3582672652 -0.2635048874 3.3170091706
S 1.6655894947 -1.7282772265 -0.7937979872
C -0.0986352111 -1.4873051855 -1.0467425861
S -0.9937348356 -1.3375575639 0.5427160326
P -2.4593436176 0.119443048 0.0433491783
S -2.32484115 0.9076418394 -1.751684038
O -2.504022753 1.059330171 1.31609534
C -1.452300105 1.9346333316 1.7524061853
C -1.5289239867 3.2793374318 1.0569062164
O -3.8514576003 -0.56677616 0.3540651267
C -4.6204522146 -1.2299414713 -0.6626746231
C -3.9493866701 -2.5017363259 -1.1429245971
H 3.2571809868 0.4124136265 -2.6380449326
H 4.2912345656 1.717751934 -2.054052811
H 4.9829325722 0.4102273949 -3.0313936363
H 5.5488617021 0.0691331302 -0.6322905127
H 4.448458768 -1.2193670934 -1.2077159877
H 1.3915175011 -1.1528762852 3.0939357964
H 2.5968913037 -1.724538264 1.908777789
H 4.185779154 0.0388496154 2.6806795555
H 2.9941607142 0.608148676 3.8537114647
H 3.7042925902 -1.0055824976 4.0295330204
H -0.4483633291 -2.3718480154 -1.5734290971
H -0.2760283838 -0.5780488125 -1.6297597213
H -1.6191810371 2.0342528749 2.8268303418
H -0.4788500048 1.4643714508 1.5788748528
H -0.7882846499 3.946756184 1.4857380423
H -1.3182194422 3.1678548087 -0.0055094999
H -2.5203872043 3.7070535053 1.1774807805
H -5.5742217033 -1.4356041669 -0.1751092532
H -4.7698594177 -0.536239931 -1.4963295403
H -3.0445321509 -2.2515171698 -1.6959423408
H -3.6886532759 -3.1332754352 -0.2972577078
H -4.6248161552 -3.0390932639 -1.8008220535
*
