! r2scan-3c def2/J RI DEFGRID2 scfconv6 printgap
%output
    printlevel normal
end
%cpcm
    smd true
    smdsolvent "water"
end
* xyz 0 1
C 4.5607955884 1.1140577396 -1.9631123868
C 4.7423523575 0.3232999658 -0.6849587459
O 3.668012804 0.5245615723 0.2540001628
P 2.1237328302 0.3206545485 -0.0557467165
S 1.1811792027 1.7440654615 -1.0142987159
O 1.532917646 0.1750896329 1.3967093437
C 2.0310982408 -0.7852425241 2.366340094
C 0.9503384449 -0.9978347976 3.405291472
S 2.0771485915 -1.599169143 -0.9709971594
C 0.3268597308 -1.610527277 -1.4029998874
S -0.7522404093 -1.8030782835 0.0569270945
P -1.9207633095 -0.0599306798 -0.0691662913
S -2.1986630201 0.6786678003 -1.8684334684
O -1.2825455943 0.8696695849 1.0369847238
C -1.5342319989 2.286597588 1.0917156208
C -2.9769588736 2.5897995256 1.4322804185
O -3.2565422965 -0.5207543367 0.6610697986
C -4.2400517615 -1.3353457431 -0.0062126396
C -5.5482855044 -1.2008269989 0.746767386
H 5.4323809703 0.9824568688 -2.5960162165
H 3.6779593743 0.766898858 -2.4984229202
H 4.4315796509 2.1709721908 -1.741604327
H 5.6260954952 0.6508521667 -0.1347216274
H 4.8099581876 -0.7468877823 -0.8980150496
H 2.2715161977 -1.7169239099 1.8453050506
H 2.9394459089 -0.3685408532 2.8050293569
H 0.0516830024 -1.3908241539 2.9358343438
H 1.3056906686 -1.7049882059 4.1477178895
H 0.7062586621 -0.0563640969 3.8889263407
H 0.1779537868 -2.4723545637 -2.0482438148
H 0.0602905899 -0.681495558 -1.9154297561
H -0.8450828375 2.641497686 1.8596439937
H -1.2556795177 2.7258514292 0.1275643466
H -3.0969527216 3.6607970071 1.562334481
H -3.6235428388 2.2567019269 0.6211431893
H -3.2620258843 2.075356281 2.3462046287
H -4.3332273988 -0.9901981153 -1.0416826413
H -3.8834382595 -2.3689618934 -0.004605225
H -5.889851857 -0.1698112402 0.725113321
H -6.2941497068 -1.8345740755 0.2786025348
H -5.4125207335 -1.5054218864 1.780285119
*
