! wb97x-v def2-tzvp def2/J RIJCOSX DEFGRID2 scfconv7 GCP(DFT/TZ) printgap
%output
    printlevel normal
end
* xyz 0 1
C 2.9958936702990995 -1.8849357341881239 0.301093691570947
C 1.7193882584962705 -1.145104587541181 0.13559777742275722
C 1.5522233624150052 0.19876045429071468 0.03408983370774573
C 0.24884827252003527 0.7980923940929275 -0.18137098253721462
O 0.10044907262223597 1.9806831300732892 -0.481304311045827
N -0.8540468023079976 -0.07368237124110041 -0.010240761983931132
C -0.6881141406858478 -1.445706384780522 -0.1824452607377968
O -1.5817386580194448 -2.2306708947445895 -0.48844355545086554
N 0.593727674642803 -1.9152077039282684 0.023826538066224565
C -2.266299588207717 0.500336534363196 0.14822662048379506
C -3.14873421830419 -0.4850114179516347 0.9351606099347053
C -2.210619890590138 1.7847337931220792 0.9939829188371498
C -2.8570577827194024 0.7751086732524977 -1.2318687868349154
Cl 2.9099682963189095 1.2904436970855755 0.05695028114837888
H 2.915378362521197 -2.5728243080446003 1.1490845934009917
H 3.8349553373128655 -1.2120745645141981 0.46412230292209233
H 3.1905952881172372 -2.4859334241125866 -0.5944111616353517
H 0.7006011715198334 -2.918972005365154 -0.06431966880547976
H -2.6319728481183424 -0.8532336470074762 1.8273969821154408
H -4.0338750439168045 0.06439054416047733 1.2639540754963348
H -3.4799231750176935 -1.3334949327433085 0.3420450676583212
H -1.8074976118451858 2.638664398784625 0.4562592110451834
H -1.6257839925119468 1.6292732922834163 1.9063565850281485
H -3.2350238597770855 2.022983961732572 1.2895444311730464
H -3.8704203820658365 1.1718370922162331 -1.1140170440606052
H -2.260295408401105 1.5110791911524086 -1.777277733605769
H -2.9144378665478516 -0.14405713947247067 -1.8221708821291067
*
