! r2scan-3c def2/J RI DEFGRID2 scfconv6 printgap
%output
    printlevel normal
end
* xyz 0 1
C 1.1239695255 -0.0688814366 2.9190396763
C 2.6269814835 -0.0637112551 2.7295759328
O 3.0141804771 0.5718448697 1.4986838074
P 2.727774038 -0.0795072314 0.0770515613
S 2.9412012504 -2.0316491164 0.0015306008
O 3.6807561914 0.7626353197 -0.8651072085
C 5.0505437709 0.383120592 -1.115069837
C 5.9126905078 0.49712227 0.1247835989
S 0.8872071818 0.7396590424 -0.5896197048
C 0.0272405491 -0.7938850398 -1.050408543
S -1.2901580669 -1.2270055128 0.106603252
P -2.7053280548 0.1919304189 -0.6265749261
S -2.7751976227 0.3523383213 -2.5740740121
O -2.3919465382 1.5640488489 0.0692479162
C -2.2983256434 1.7264466719 1.5098783843
C -1.371634982 2.8930114772 1.7817157996
O -4.0483340888 -0.2574341165 0.0915692885
C -4.7442659376 -1.4597559719 -0.3016000407
C -6.1344165519 -1.405515608 0.298208507
H 0.8870581391 -0.4604437189 3.9030572356
H 0.7311454457 0.9402703154 2.8278835604
H 0.6541755576 -0.7047342071 2.1682529643
H 3.0178481174 -1.0863834077 2.7294146256
H 3.1277271999 0.5264456874 3.4982082516
H 5.0593920455 -0.6419982271 -1.4992869238
H 5.3711288845 1.0736886398 -1.8962485776
H 6.9496415625 0.318637532 -0.1424908432
H 5.8153472205 1.4884471591 0.5594005411
H 5.6054024521 -0.2435103886 0.861725165
H 0.7403053406 -1.6209105364 -1.050306061
H -0.4151625812 -0.6471964389 -2.0364912374
H -3.3061526029 1.914246521 1.883523444
H -1.9179261594 0.7968884628 1.9436167524
H -1.7687865128 3.7965370373 1.3284862122
H -1.2830440328 3.0371596165 2.8538502644
H -0.3906351434 2.698529645 1.3542476013
H -4.7777639973 -1.5005200657 -1.3951782284
H -4.1787662237 -2.317535306 0.0719087226
H -6.6761108522 -2.3041286538 0.0221561654
H -6.0694097558 -1.3417692537 1.3803003165
H -6.6679873384 -0.5361651561 -0.0755341298
*
