! pbe def2-sv(p) def2/J RI DEFGRID1 loosescf d4 GCP(DFT/SV(P)) printgap
%output
    printlevel normal
end
* xyz 0 1
C 2.0984789931 -0.2637825899 -2.5402159084
C 1.6996299491 -1.304757687 -1.5133471015
O 2.539778799 -1.2720306427 -0.3512912065
P 2.4377991561 -0.2033011634 0.8319390205
S 2.9960966058 1.6363739942 0.4742793642
O 3.3757631416 -0.8474020005 1.9171619253
C 3.193240017 -2.1790884612 2.4618480149
C 4.0726380655 -3.1827819391 1.7445888289
S 0.456113234 -0.469797699 1.5883754659
C -0.1985367679 1.1774105744 1.2370996987
S -0.4128553738 1.5365399281 -0.5367198816
P -2.23222 0.5229292339 -0.862525565
S -3.0231547906 0.6441892049 -2.6505148474
O -3.2195743078 0.9495005547 0.3230749205
C -4.1666323746 2.0173153324 0.1610350951
C -3.485491522 3.370098816 0.1072386452
O -1.7897254218 -0.9239980915 -0.3936266486
C -2.7161756197 -2.0352527261 -0.408599551
C -1.9048084259 -3.3069036383 -0.2746788657
H 3.1379323736 -0.3976956324 -2.8272576412
H 1.4649695315 -0.3638754217 -3.4164941817
H 1.9765986506 0.7391725261 -2.1348482963
H 1.8315364803 -2.3149306004 -1.9066919735
H 0.6570120076 -1.170285007 -1.2065898745
H 3.4763153369 -2.0819852442 3.5114409771
H 2.1362520245 -2.4495479004 2.3897148735
H 3.7910064894 -3.254107224 0.6977030752
H 5.1125754863 -2.8739531749 1.80484259
H 3.9591250617 -4.1544921433 2.2150924684
H 0.5036211057 1.9279800401 1.5974230984
H -1.1586691568 1.2422612654 1.7423247617
H -4.7338726917 1.8390485774 -0.7580846029
H -4.8225750691 1.9265850887 1.0278654611
H -2.8833554617 3.53477474 0.9973200582
H -2.8399475234 3.4234936129 -0.7695917442
H -4.2376686947 4.1490811598 0.0356965409
H -3.4071905469 -1.9101415382 0.427940636
H -3.2771332409 -2.0057053258 -1.3486303152
H -1.2425927 -3.4216114113 -1.1282841904
H -1.3090957709 -3.2665981208 0.6332102771
H -2.5786141114 -4.156039217 -0.2279612522
*
