! pbe def2-sv(p) def2/J RI DEFGRID1 loosescf d4 GCP(DFT/SV(P)) printgap
%output
    printlevel normal
end
* xyz 0 1
C 4.6226767848 1.2196666028 -1.6370865985
C 4.7192983733 -0.0956852401 -0.8913855198
O 3.4408664075 -0.7440556563 -0.7674478141
P 2.2774524769 -0.1639886519 0.1440655233
S 2.8629853528 0.6226758634 1.8440877513
O 1.2916261798 -1.3970609279 0.2438643393
C 1.3340850954 -2.3436043826 1.329488256
C 2.6058653331 -3.1643130763 1.3127651327
S 1.1669619902 1.0735871256 -1.1530306076
C 0.2234542881 1.926533459 0.1429316027
S -0.8457433625 0.8391699558 1.1256963198
P -2.1061267303 0.0710824775 -0.4376746261
S -1.4258433266 -1.3482533309 -1.5965627443
O -2.5725383231 1.3390453678 -1.2410652635
C -3.3344851499 2.4297329038 -0.6562215988
C -4.8171890772 2.2271616677 -0.8888639916
O -3.3893838546 -0.3397604928 0.4050854646
C -3.3881123699 -1.5229706711 1.2279692148
C -4.8247036162 -1.8366081838 1.5934224393
H 4.0616203995 1.9427752586 -1.0463014868
H 5.6210168407 1.606864002 -1.8137125701
H 4.1156951839 1.0776673979 -2.5885468716
H 5.1247408886 0.0615617675 0.1134460097
H 5.3291747348 -0.8219053809 -1.4303327547
H 1.2369354739 -1.7918905646 2.270757893
H 0.4491346337 -2.9612087209 1.16631724
H 3.4632584484 -2.5210766804 1.5088097989
H 2.5521125927 -3.9272398776 2.0830026702
H 2.7331818911 -3.6352359757 0.3413312664
H -0.3702749223 2.6852909348 -0.3601506997
H 0.9135939092 2.3748736994 0.85842735
H -3.1077557438 2.4924496652 0.4112571566
H -2.9721084805 3.3210318854 -1.1721037259
H -5.3564140146 3.0897821598 -0.5098768181
H -5.0153495967 2.1177376567 -1.9515301211
H -5.1602114496 1.3337088332 -0.3747138068
H -2.9291350881 -2.3393511096 0.6601908005
H -2.7836400483 -1.3191386697 2.116583304
H -5.4057683266 -2.0211530163 0.6943214033
H -4.8466715227 -2.7212067078 2.2211805923
H -5.2617627066 -1.0018706584 2.1334913875
*
