! pbe def2-sv(p) def2/J RI DEFGRID1 loosescf d4 GCP(DFT/SV(P)) printgap
%output
    printlevel normal
end
* xyz 0 1
C 4.4001310078 0.6334594622 -2.2639657753
C 4.6565292851 0.043303176 -0.8935271698
O 3.6828550244 0.4567847103 0.0841073387
P 2.108662955 0.295670395 -0.0560001463
S 1.144721963 1.5884229025 -1.1703416505
O 1.6557148239 0.4306267982 1.4491922825
C 2.2656147727 -0.3575462188 2.5108432844
C 1.190925465 -0.7834184582 3.4892877211
S 1.8919339738 -1.7504610052 -0.597160225
C 0.1419507931 -1.7021940711 -1.0279876715
S -0.9275660359 -1.4103321103 0.4166104897
P -2.0823723153 0.2403474271 -0.2733848547
S -2.1673333616 0.5005740003 -2.2073934621
O -1.5592551502 1.4989802397 0.5176343752
C -1.486373049 1.5523575016 1.9630666102
C -2.6524214443 2.3367972886 2.527208868
O -3.4891049515 -0.0123999604 0.4319598171
C -4.5341384073 -0.79572998 -0.1713701359
C -4.1584630102 -2.2558417687 -0.3199418043
H 5.2039413489 0.3508025932 -2.9359697228
H 3.456611439 0.2632111897 -2.6631187611
H 4.3419549816 1.7179368318 -2.206097938
H 5.6013470077 0.3968254263 -0.4771141461
H 4.652645954 -1.0492708474 -0.9362861384
H 2.7592779433 -1.2259088539 2.0657609585
H 3.0126776325 0.2818181245 2.9835045619
H 0.6956061376 0.087832704 3.9077388618
H 0.4529203753 -1.4070360276 2.990638413
H 1.6534882431 -1.3514332874 4.2900362819
H -0.0934181185 -2.6810145487 -1.4382023342
H -0.0433061632 -0.9106968942 -1.7597694293
H -1.4686107548 0.5311246859 2.3543619423
H -0.5315434629 2.0417201635 2.169208085
H -3.5876309456 1.8289110948 2.3072093685
H -2.533467168 2.4240931256 3.6026270305
H -2.6795999625 3.3294562681 2.0858534369
H -5.3785428234 -0.6649722789 0.5069185531
H -4.7682504976 -0.3592748793 -1.1471088318
H -3.3729187258 -2.3621561847 -1.0665043266
H -3.8056699627 -2.6567074982 0.6268983414
H -5.0293069973 -2.8146202107 -0.6472534794
*
