! r2scan-3c def2/J RI DEFGRID2 scfconv6 printgap
%output
    printlevel normal
end
* xyz 0 1
C 1.3323535802 3.2945329552 0.2818333674
C 1.2496829213 2.0011809343 1.0659156408
O 2.0674799792 1.0290001485 0.3838790658
P 2.268534777 -0.4216667753 0.985826079
S 2.7353238692 -0.5132159644 2.8843039644
O 3.3695663449 -0.8896143207 -0.0537562188
C 4.2911772264 -1.9483936719 0.2628970575
C 3.6156752325 -3.3055947155 0.261486156
S 0.4968572994 -1.4857640023 0.4555737873
C 0.4863434046 -1.0912675902 -1.3186309133
S -0.2436615921 0.5168432019 -1.722956506
P -2.1667593688 0.1308219895 -0.9484687577
S -2.9073941853 -1.6530816943 -1.2337976941
O -3.0958646346 1.254125179 -1.5665545063
C -2.8280336114 2.6740100362 -1.4357758001
C -2.1810106717 3.2171128002 -2.6938036712
O -1.9176901224 0.5486601242 0.5842417447
C -2.6835507077 -0.0262525755 1.6566408105
C -4.0940843393 0.5258940956 1.6830114754
H 0.7302429791 4.0506398337 0.7747195362
H 2.3636050692 3.630613889 0.2318841659
H 0.9651855402 3.1350033854 -0.7283675948
H 0.2208511733 1.6295850454 1.1128146277
H 1.627674061 2.1166982963 2.086977515
H 5.0537172339 -1.874875377 -0.5137574534
H 4.7361380624 -1.74296181 1.2415973377
H 4.3593705367 -4.0763252059 0.4369205545
H 2.8694969609 -3.3494903536 1.0546147422
H 3.1270586222 -3.4903472799 -0.6919351844
H -0.1025871239 -1.8748875423 -1.7938855971
H 1.5066837886 -1.0689605275 -1.694704511
H -3.810887338 3.1203039389 -1.2748370686
H -2.1972629261 2.839425555 -0.559033287
H -1.201808735 2.7682821559 -2.8462685762
H -2.8035613885 2.9958492719 -3.5561909957
H -2.0694743842 4.2925909106 -2.5984931983
H -2.6927008565 -1.1139851932 1.5327920916
H -2.1249723263 0.2322588089 2.5580002899
H -4.6081289086 0.2602860088 0.7592897717
H -4.6325247901 0.0966581387 2.5219544595
H -4.0768738452 1.60824658 1.781527737
*
