! r2scan-3c def2/J RI DEFGRID2 scfconv6 printgap
%output
    printlevel normal
end
%cpcm
    smd true
    smdsolvent "water"
end
* xyz 0 1
C 0.997284725 1.562760012 2.3836321282
C 2.4072044834 1.0099673308 2.4267724319
O 2.9453468679 0.8071007619 1.110264703
P 2.5015292943 -0.4063522614 0.1815390951
S 2.1970319263 -2.1028879202 1.1244413644
O 3.654363468 -0.4274963382 -0.9045153813
C 4.8674619266 -1.1885149433 -0.7296327435
C 5.7430815591 -0.620686962 0.3678482461
S 0.9629812611 0.3619470466 -1.0517457293
C -0.0971286089 -1.1114073038 -1.107849805
S -1.2236674872 -1.2351142821 0.3101255544
P -2.5082572303 0.3218101203 -0.2956383709
S -2.9075683361 0.465797167 -2.214791927
O -1.7694994 1.5429083003 0.3881999499
C -2.1057538081 2.9178220826 0.0920214032
C -1.1786658366 3.47699615 -0.9692001879
O -3.8007077107 0.193613767 0.6231362332
C -4.9478909299 -0.5824764341 0.2356516828
C -4.6506054879 -2.0679994387 0.2283341643
H 0.6732431674 1.8032284782 3.3911398487
H 0.962873866 2.4592287222 1.7697790784
H 0.3130769473 0.8263408545 1.9635950628
H 2.4308516841 0.0557105228 2.9638849817
H 3.0989917776 1.7148941176 2.8903582357
H 4.5953129462 -2.2255621338 -0.5083755296
H 5.3521893404 -1.1308986214 -1.7050760362
H 5.9188894645 0.4380807573 0.1969129281
H 5.2564021207 -0.7461758374 1.3338919424
H 6.6916246544 -1.1484852609 0.3796852997
H 0.5148154687 -2.0107454332 -1.0957770284
H -0.6844339736 -1.0380828185 -2.0231366605
H -3.1491797032 2.9744122105 -0.2295274172
H -1.986922369 3.4383820664 1.0436026041
H -0.1424484226 3.3489859568 -0.668526381
H -1.3267411453 2.9552800805 -1.9121619966
H -1.3886393068 4.5323448005 -1.1098412715
H -5.7026469291 -0.3247918017 0.9797363285
H -5.2712916684 -0.2501563523 -0.7562055584
H -4.2270312648 -2.373344296 1.1818712468
H -5.5680967894 -2.6184828642 0.046794795
H -3.9368770315 -2.3005441982 -0.5611427678
*
