! pbe def2-sv(p) def2/J RI DEFGRID1 loosescf d4 GCP(DFT/SV(P)) printgap
%output
    printlevel normal
end
* xyz 0 1
C 5.5033367049 0.5139175911 -1.9097073955
C 4.3557468434 1.0693601825 -1.0908230597
O 3.293770967 0.0928391802 -1.0906458016
P 2.2111923229 0.0168688565 0.0695056509
S 2.9527719204 0.1308272231 1.8834783482
O 1.4394717705 -1.3093161306 -0.2885448667
C 1.8408242594 -2.6143475728 0.1910379399
C 0.638759289 -3.2980672844 0.8091201158
S 0.8053581106 1.4878547642 -0.4585461242
C -0.0516597496 1.5421784875 1.1389431859
S -1.0927939503 0.0902791737 1.4693429974
P -2.1790812057 -0.0216938984 -0.3814294726
S -1.4200093167 -1.0697063033 -1.8465385464
O -2.4645505737 1.4772392305 -0.7701085391
C -3.3254116193 2.3470964061 0.0164494952
C -3.0182101538 3.7763108676 -0.3797449733
O -3.6164367445 -0.5233140497 0.0874248161
C -3.9408339246 -1.9159002293 0.2292346374
C -3.38345355 -2.4883496218 1.5164305533
H 5.8807404556 -0.3979391959 -1.4553926284
H 5.164097612 0.2905390762 -2.917194572
H 6.2991550908 1.2502329556 -1.9515879179
H 3.9639589936 1.9923410279 -1.5256906843
H 4.6565368308 1.2577705812 -0.0545214789
H 2.2092844179 -3.1599092445 -0.6793428934
H 2.6478132878 -2.4922241962 0.9211918634
H -0.1751025347 -3.3201719304 0.0879573474
H 0.9054191044 -4.3130493135 1.0843305539
H 0.3159177269 -2.7573654838 1.6963894138
H -0.654697101 2.4457651345 1.1378645056
H 0.6867855944 1.5659316015 1.9427751796
H -4.358732708 2.0813893271 -0.2126686509
H -3.1407208548 2.165008268 1.0786155096
H -3.6451234506 4.44822314 0.1976433165
H -1.9728494911 4.0105514253 -0.194878389
H -3.2173090825 3.9177980384 -1.4379648007
H -5.0315421882 -1.936862573 0.2183284044
H -3.5509512938 -2.4533714107 -0.6418226236
H -2.2953047173 -2.4493820243 1.5002458099
H -3.7384287158 -1.916346605 2.3692274005
H -3.69789104 -3.521944148 1.6172797325
*
