  8
        -27.61087980
 C          0.1728546507        0.3817296226       -0.5731720067
 H          0.1936094423        0.3693457381       -1.6663281830
 C          1.2244638956       -0.5766048056       -0.0231643900
 F          2.4536461799       -0.2267492156       -0.4247830909
 F          1.2442068293       -0.6191960587        1.3068857376
 F          1.0222023260       -1.8239027591       -0.4578737962
 Cl         0.5342122608        2.0232259705        0.0118772755
 Br        -1.5717814031       -0.2382640607        0.0045210019
