! pbe def2-sv(p) def2/J RI DEFGRID1 loosescf d4 GCP(DFT/SV(P)) printgap
%output
    printlevel normal
end
* xyz 0 1
C 4.8366720911 -0.5313724335 -1.8658777614
C 4.1824242047 -1.7581849979 -1.2644366699
O 3.4540905353 -1.47138031 -0.0572526829
P 2.3585515882 -0.3362686986 0.1210937895
S 2.9896647683 1.5099347322 0.3639930536
O 1.542202362 -0.9124252823 1.350834624
C 1.730881494 -0.4288954089 2.6937956052
C 3.0438381078 -0.9180502153 3.2677564598
S 1.0209958899 -0.6702321706 -1.4834867907
C 0.128372928 0.8998517794 -1.3152905732
S -0.7956558053 1.0432139917 0.231996133
P -2.742939339 0.4577015813 -0.4445989657
S -2.9017446517 -0.0499089815 -2.3268403574
O -3.6597529189 1.6961753607 -0.1116965191
C -3.5495136178 2.5807863531 1.028497555
C -3.5430228394 1.8388839838 2.3469860316
O -3.2615667543 -0.6354666216 0.5903538992
C -3.0986673979 -2.0474685916 0.3879833338
C -1.6481606551 -2.4775779841 0.4674966451
H 5.4663198161 -0.0364848665 -1.1300686687
H 5.4424014909 -0.8262174197 -2.7167684593
H 4.0772548837 0.1745018179 -2.2003281951
H 4.9262711091 -2.4912952709 -0.9470396822
H 3.4911413229 -2.2167171296 -1.9772693432
H 1.6934289513 0.6654075031 2.6814554349
H 0.8745804683 -0.8208760845 3.2436732405
H 3.0907770156 -2.0028466245 3.2266382199
H 3.8694081786 -0.5098612507 2.6853839925
H 3.137264763 -0.5871849881 4.2972101888
H -0.5629774115 0.9530460292 -2.1575902012
H 0.8487884723 1.7170737609 -1.3290759968
H -2.6386623076 3.1739788925 0.9121169609
H -4.4252756847 3.2237499346 0.9291155496
H -3.5452351678 2.5585508443 3.159800804
H -4.4193597625 1.2010988447 2.4256040346
H -2.648898435 1.2223308892 2.4225691845
H -3.6948928328 -2.4942761154 1.185054471
H -3.5220590757 -2.3110846008 -0.5864111828
H -1.5915929662 -3.561226296 0.4545507392
H -1.0969222773 -2.0929088028 -0.3895731093
H -1.1864024375 -2.1052512187 1.3789026123
*
