! pbe def2-sv(p) def2/J RI DEFGRID1 loosescf d4 GCP(DFT/SV(P)) printgap
%output
    printlevel normal
end
* xyz 0 1
C 5.7035442156 0.2422045128 -1.406283092
C 4.2056002282 0.0988158138 -1.581946813
O 3.5906531971 0.2764479458 -0.2899530352
P 2.0185186176 0.4755534726 -0.1554123181
S 1.2862438169 1.9423195652 -1.2264738697
O 1.8581029576 0.7463994374 1.383851286
C 2.6492904306 0.1418711457 2.4372013892
C 2.5812481305 -1.3692581333 2.4275534943
S 1.2502299343 -1.4527456878 -0.6648306495
C -0.0666417983 -1.0011103954 -1.8295614827
S -1.7263284939 -1.5103080715 -1.3070098684
P -2.0627861988 -0.2855555682 0.3696684555
S -1.0553383407 -0.5357248217 2.0222064121
O -3.6043992849 -0.4978664762 0.670375568
C -4.6448574169 -0.3489446848 -0.3270428129
C -5.1529922839 -1.7068407421 -0.7674204051
O -1.8946059599 1.1475605907 -0.3293544629
C -1.6812068103 2.3386547306 0.4448350301
C -2.9374625834 2.7619496581 1.176370226
H 6.1880486282 0.1067980919 -2.367516507
H 5.9416631988 1.2296689318 -1.0209829395
H 6.0705438201 -0.5060868643 -0.7099634718
H 3.9391249223 -0.8944739866 -1.9539508114
H 3.8061327738 0.856724387 -2.2637841682
H 3.6769906165 0.4925902147 2.3255927898
H 2.2040748266 0.5529758225 3.3443642349
H 3.0158323479 -1.7648957687 1.5107129391
H 3.1355621784 -1.7541005106 3.2776087533
H 1.5463029225 -1.6971113516 2.4991767398
H 0.1095001976 -1.5398152952 -2.7574709806
H -0.0404091801 0.0810531167 -1.9871788501
H -5.4285539192 0.2210361854 0.17548895
H -4.2535638085 0.2244407363 -1.1712461659
H -4.3641472646 -2.2645298173 -1.2676406396
H -5.4893358016 -2.2737533396 0.0961527707
H -5.9830060982 -1.5693760385 -1.4531349688
H -0.8628436326 2.1536096684 1.150410116
H -1.3596449641 3.0794373692 -0.2895645674
H -2.7468138188 3.690866049 1.70446536
H -3.7523757278 2.9079961579 0.4720856311
H -3.2194460511 1.9952848601 1.8978824862
*
