! pbe def2-sv(p) def2/J RI DEFGRID1 loosescf d4 GCP(DFT/SV(P)) printgap
%output
    printlevel normal
end
* xyz 0 1
C 2.0791572983 1.7313461462 -2.4474544698
C 2.3812244726 0.423524711 -1.7476717517
O 2.3915895987 0.6819195345 -0.3219039185
P 2.289782925 -0.4375819867 0.7836611584
S 2.5404653204 0.3766203801 2.5435146239
O 3.3645718825 -1.4870282104 0.2651673882
C 3.4484734101 -2.8659695047 0.6752562106
C 3.5076928563 -3.0294930899 2.1792954719
S 0.4475229099 -1.4692121411 0.5099931188
C -0.5556141378 -0.3415512073 1.5076998795
S -0.7852162113 1.2896233163 0.7531500016
P -1.9517033837 0.7227013146 -0.9351880782
S -1.1445359564 -0.181762944 -2.4670293558
O -2.5227931728 2.117154193 -1.418762701
C -2.9829258684 3.2107036454 -0.592001043
C -4.1493708621 2.8227588425 0.2913728208
O -3.1567173403 -0.079316465 -0.2591045206
C -3.6564314068 -1.343003079 -0.7392860821
C -3.124774399 -2.4985016278 0.0848628918
H 1.0859889742 2.0819572461 -2.1738791874
H 2.8081825925 2.4849512324 -2.1642491156
H 2.110157731 1.5734883198 -3.5206112541
H 3.362410743 0.0342715013 -2.0241738831
H 1.6164083114 -0.3268340238 -1.9722813743
H 2.5866905323 -3.3962910782 0.26023237
H 4.3645093352 -3.2182675438 0.1977942109
H 3.6536808103 -4.0771763506 2.4216354822
H 4.3268508486 -2.4454952934 2.5923667438
H 2.5789939003 -2.6852056233 2.6322807679
H -0.0443661482 -0.1557526722 2.4540070554
H -1.5209330717 -0.8160935903 1.6610765433
H -2.1408023303 3.56874603 0.0056931666
H -3.2655048525 3.9719435959 -1.3212519301
H -3.839515884 2.0762241153 1.0191762438
H -4.502948241 3.7043259151 0.8171787978
H -4.9577674301 2.4159441881 -0.3105583119
H -4.7410868647 -1.2606744019 -0.6535413716
H -3.3766134715 -1.4597630432 -1.7907250348
H -3.3748522955 -2.3659890086 1.1342067865
H -3.5763189023 -3.4189670651 -0.2710397802
H -2.0435406508 -2.5762845104 -0.0239236626
*
