! pbe def2-sv(p) def2/J RI DEFGRID1 loosescf d4 GCP(DFT/SV(P)) printgap
%output
    printlevel normal
end
* xyz 0 1
C 2.6521744903 -2.9105120999 1.2841794079
C 1.6375227728 -2.0747190918 0.5291910481
O 1.8880341051 -0.6835840497 0.7841991272
P 2.3293117225 0.3871951716 -0.312760817
S 3.0273645799 -0.3614900524 -1.9749419486
O 3.3946122305 1.2804254361 0.4277156762
C 3.1393106777 2.1328227662 1.5707112223
C 3.2006265236 1.3565725556 2.8700765773
S 0.6638317822 1.7166144416 -0.4938333248
C -0.0806110914 0.9412001806 -1.9425165732
S -0.6675672447 -0.7454248963 -1.6163712955
P -2.0962543149 -0.2332608994 -0.1495245691
S -3.0804883585 1.4460371727 -0.4070509529
O -1.2504107818 -0.3966033052 1.1764697262
C -1.7062913488 0.1396980443 2.4434699358
C -1.0163921845 1.4555196806 2.7400296748
O -3.0235499861 -1.5222415373 -0.0710797384
C -4.1109367978 -1.7483953196 -0.9906110346
C -5.119620984 -2.6532542451 -0.3119182699
H 2.608538194 -2.6884199345 2.3465361132
H 2.4344087307 -3.9617995194 1.1262206435
H 3.6532294735 -2.6946763713 0.9176472161
H 0.6173089069 -2.2702854733 0.8680971709
H 1.7039728626 -2.2623437397 -0.5477308913
H 3.9298909378 2.8832360734 1.5163696678
H 2.1668908493 2.615353873 1.4370559974
H 2.4240749031 0.5965275632 2.8950007083
H 4.167254355 0.8699257675 2.9677017478
H 3.0591007603 2.0428617213 3.6993269346
H 0.6563729986 0.8601186306 -2.7410641646
H -0.921025226 1.5710588718 -2.2324767671
H -2.7918227493 0.2647421646 2.4110415633
H -1.4459849715 -0.625295011 3.1765638908
H -1.3078251979 1.798585211 3.7273790644
H 0.0618038061 1.3264403634 2.7054515532
H -1.3000261731 2.2037369455 2.0026760507
H -4.5534451732 -0.7815430477 -1.2537253957
H -3.6996337795 -2.2123722137 -1.8905778129
H -4.6432165951 -3.5841531743 -0.0185217241
H -5.5228749804 -2.1688746411 0.5729503408
H -5.928462429 -2.8648723932 -1.003492813
*
