! pbe def2-sv(p) def2/J RI DEFGRID1 loosescf d4 GCP(DFT/SV(P)) printgap
%output
    printlevel normal
end
* xyz 0 1
C 4.5798165744 -1.5706955803 -1.0271536305
C 4.655257565 -0.128200309 -0.5702200986
O 3.5395063889 0.2361637352 0.2607885768
P 2.0519245709 0.3497629436 -0.3010019257
S 1.965121067 1.1068636194 -2.1127789659
O 1.3725857959 1.160693556 0.8771787557
C 1.5519108318 2.5882919551 0.9953150374
C 0.7338034215 3.0574415977 2.1790294433
S 1.2323633351 -1.5505909414 0.0115728973
C -0.0119439667 -1.5938751 -1.32898235
S -1.6833325009 -1.864750384 -0.719730871
P -1.9501617608 0.0099708275 0.2565035654
S -1.3709423751 1.5538949978 -0.8059631043
O -1.1889798886 0.0143637031 1.6356776236
C -1.5629175405 -0.7037942017 2.8378278235
C -1.4719097414 -2.2076093932 2.6808793097
O -3.4651302806 -0.0415537223 0.728273676
C -4.5774096357 -0.4409529066 -0.0944787794
C -4.6947453073 0.3800611805 -1.3610568363
H 5.4994980163 -1.8318787892 -1.5405977494
H 4.4393463214 -2.2308896421 -0.1750687091
H 3.7441442942 -1.6976834201 -1.7140628782
H 4.6767564793 0.5469153529 -1.4317803642
H 5.5231012839 0.050274506 0.0660293203
H 2.6174223191 2.793599719 1.1305728675
H 1.2101436927 3.0532031747 0.0637439702
H 1.0738954777 2.564237062 3.0848201602
H 0.8422231308 4.1319289169 2.2840968587
H -0.3135846145 2.815565305 2.0153596428
H 0.2140956511 -2.4398718208 -1.9727974052
H 0.0394019024 -0.6510224625 -1.8811500709
H -0.8441639799 -0.3369250968 3.5724742703
H -2.5720524036 -0.3957731155 3.1169722863
H -0.4948045848 -2.4898099957 2.2943698301
H -1.6158495061 -2.6686866728 3.6531877026
H -2.2384689949 -2.5721208147 2.0009894865
H -4.462432036 -1.5019081907 -0.3319470242
H -5.4413394444 -0.295375078 0.5564893731
H -5.5904583885 0.0875036732 -1.899219917
H -4.7458015178 1.4402581045 -1.1241636245
H -3.8275664217 0.2141972898 -1.99873951
*
