! pbe def2-sv(p) def2/J RI DEFGRID1 loosescf d4 GCP(DFT/SV(P)) printgap
%output
    printlevel normal
end
* xyz 0 1
C 4.5033908394 0.0064078304 -2.0749443635
C 4.4425456243 1.0731070061 -1.0008983228
O 3.6721322878 0.6606166983 0.1413055937
P 2.1065059059 0.3832919729 0.0794278131
S 1.0749083891 1.6329304041 -1.0231979691
O 1.7127359302 0.4660267459 1.6049669829
C 2.4084321677 -0.2932106554 2.6358790071
C 1.5062191927 -1.3710590067 3.2012642676
S 2.0022463899 -1.6728905542 -0.4505585786
C 0.2537964807 -1.7353552273 -0.9016254533
S -0.8456807594 -1.2755249214 0.4729114498
P -2.0680768265 0.2118180937 -0.4381359472
S -1.9759616303 0.2488894659 -2.3940890082
O -1.8198380846 1.6137449793 0.2313745142
C -2.2747758437 2.0179769457 1.5466520962
C -1.6333385136 1.2058076979 2.6513374053
O -3.5056000822 -0.1548586282 0.1409920945
C -4.1988617472 -1.3401695809 -0.2979349238
C -5.6457786324 -1.2210407563 0.1354741469
H 5.204016302 0.3143180839 -2.8445017613
H 4.8240972403 -0.9420118451 -1.6513536717
H 3.5212661849 -0.1230710248 -2.5275938002
H 4.0029694762 1.9933698327 -1.3977401627
H 5.4287068025 1.281941861 -0.5835580002
H 3.3177278835 -0.719241634 2.2080385691
H 2.6719289133 0.4457246229 3.3939451053
H 0.5907163371 -0.9342081683 3.5889084576
H 1.2451017902 -2.0957016493 2.4339847124
H 2.0306605494 -1.877508038 4.005165366
H 0.0524934358 -2.7671968645 -1.1784037469
H 0.052685352 -1.0583756219 -1.7369578969
H -1.9781188676 3.0672180754 1.5944293676
H -3.3628113268 1.9344338262 1.5718497356
H -0.5503629257 1.2328984715 2.549355535
H -1.915470121 1.6268044721 3.6113845814
H -1.9676995099 0.1703954496 2.6021968752
H -4.1085039633 -1.411312314 -1.3869830404
H -3.7141055549 -2.2068802322 0.1598619951
H -6.1012289093 -0.3465925262 -0.3209354139
H -6.1837894367 -2.1092726655 -0.1785490124
H -5.7047862349 -1.1270911956 1.2158198888
*
