! pbe def2-sv(p) def2/J RI DEFGRID1 loosescf d4 GCP(DFT/SV(P)) printgap
%output
    printlevel normal
end
* xyz 0 1
C 4.4962828745 0.4422127447 -1.9830249629
C 3.1049744187 -0.1545139951 -2.0200876715
O 2.2479435149 0.4808474327 -1.0382135359
P 1.9970308662 -0.0718898091 0.4096019225
S 0.8677518346 1.1194624642 1.4712681051
O 3.4588824277 -0.2804176549 0.9921089018
C 3.6667329642 -0.7040570598 2.356051944
C 5.0992316443 -0.3830396355 2.73046348
S 1.3633535297 -2.0956160832 0.1838445307
C -0.2384120384 -1.8469985879 -0.6208655923
S -1.5298912423 -1.2354624565 0.5098832516
P -2.1906951027 0.4145606181 -0.6666976971
S -0.8731189018 1.24223711 -1.8510775147
O -2.9437287473 1.3493634593 0.3698159736
C -2.3070557216 2.2933911049 1.2500182391
C -3.3589502941 3.2925739107 1.68520143
O -3.3956010223 -0.1379963767 -1.5175967999
C -4.5383585506 -0.8237742663 -0.9391106719
C -4.5148575946 -2.2874227106 -1.3313242945
H 4.9656758931 0.243119644 -1.0234438986
H 5.0920950261 -0.0006990449 -2.7749818436
H 4.4429596225 1.5173038253 -2.1316556493
H 3.130456613 -1.2306357152 -1.8263104236
H 2.6089059189 0.0429297013 -2.9726477725
H 2.9547548841 -0.1737016282 2.9969895704
H 3.4683099022 -1.7775771349 2.4104763263
H 5.2772280468 -0.6979459064 3.7533182468
H 5.7836776 -0.9062275356 2.0691069718
H 5.2757202761 0.6859095029 2.6489308561
H -0.5322964608 -2.8262018244 -0.9891510459
H -0.1311328821 -1.1257451277 -1.4356410331
H -1.8888730083 1.748901001 2.1007840357
H -1.4840066558 2.7781564278 0.7155869839
H -3.7575481829 3.8148502781 0.8198401094
H -4.169336621 2.7793428815 2.1943214667
H -2.9046758881 4.0095157569 2.360853792
H -4.5205470178 -0.6999017713 0.1455362328
H -5.4091742844 -0.3132759305 -1.3525378859
H -3.6711868752 -2.7919696835 -0.8671713852
H -5.4348186166 -2.7572842784 -0.9984758084
H -4.4341169858 -2.3803641817 -2.4106615873
*
