  21
        -24.05217537
 C         -3.6975798532        0.2505191247       -0.0009899915
 C         -2.3845398329       -0.5212890921       -0.0001911974
 C         -1.1821804258        0.4157179922        0.0014807975
 O          0.0000072037       -0.3600790333        0.0003655104
 C          1.1821938704        0.4157230523       -0.0000633055
 C          2.3845352215       -0.5213009742        0.0002195148
 C          3.6975636985        0.2505266933       -0.0007666983
 H         -3.7689866552        0.8818382686        0.8813122448
 H         -3.7674112609        0.8827233145       -0.8827880419
 H         -4.5366617837       -0.4390551004       -0.0021009097
 H         -2.3198158014       -1.1607886199       -0.8814658968
 H         -2.3215757668       -1.1619504487        0.8803620556
 H         -1.2004973244        1.0653277178       -0.8879772346
 H         -1.2006520433        1.0625488186        0.8929579050
 H          1.2006806568        1.0643188663        0.8901068113
 H          1.2004863440        1.0635386154       -0.8908205445
 H          2.3209911896       -1.1607796851        0.8816135022
 H          2.3203698951       -1.1619981122       -0.8802368670
 H          4.5366676691       -0.4390702442       -0.0018682099
 H          3.7673067186        0.8826384217       -0.8826356001
 H          3.7690710590        0.8819425029        0.8814433932
