! r2scan-3c def2/J RI DEFGRID2 scfconv6 printgap
%output
    printlevel normal
end
%cpcm
    smd true
    smdsolvent "water"
end
* xyz 0 1
C 5.0263954664 -2.6310648894 -0.7740278712
C 3.6453488583 -3.1028845524 -1.1997218552
O 2.9108725637 -2.0347291322 -1.8308331245
C 2.2112396368 -1.2180950686 -1.078975969
O 2.098972498 -1.3072660682 0.1282833851
C 1.5472038515 -0.125318179 -1.8898354089
C 0.3958992764 0.4639666489 -1.0889909745
H 0.0179568035 1.3805350715 -1.5515099214
C 0.8120907853 0.7944094441 0.3328743047
O 0.1293805235 0.4963060057 1.294532643
O 1.9075678061 1.504524002 0.3718893971
C 2.3575597315 1.9828205476 1.6571198489
C 1.6554325147 3.280560693 2.0213799818
S -0.9890035068 -0.7216752416 -0.9883471767
P -2.2412903737 0.3242592374 0.370047513
S -2.1452997858 2.2791595162 0.3811740078
O -3.6717702416 -0.187809451 -0.1757842574
C -4.1880459797 0.239595609 -1.4380435761
O -2.3123419281 -0.3594972655 1.7947290587
C -2.163809714 -1.7772426042 1.9825685248
H 4.9405009778 -1.8623191006 -0.0093017762
H 5.5823951824 -3.4695727911 -0.3679478797
H 5.5622900961 -2.2249754669 -1.6272775401
H 3.0730659291 -3.4596243145 -0.3388769542
H 3.7071510199 -3.8777366839 -1.9635689842
H 1.2022436274 -0.5292906487 -2.8406247358
H 2.2900653808 0.6519011416 -2.0821200698
H 2.1627441392 1.2065676734 2.401961271
H 3.4299110583 2.1293683869 1.5285859516
H 2.0240665401 3.6330767086 2.9787797624
H 1.8417006219 4.0348910454 1.2621694698
H 0.5809834357 3.1197891316 2.0944898292
H -4.1079893805 1.3247080174 -1.5251821054
H -5.2310297256 -0.0660557347 -1.4470244795
H -3.6372454484 -0.2413740559 -2.2464292165
H -1.1221616392 -2.0558020135 1.8178211498
H -2.8163981807 -2.3208338726 1.3004852016
H -2.4463500846 -1.9570427433 3.0165563641
*
