! pbe def2-sv(p) def2/J RI DEFGRID1 loosescf d4 GCP(DFT/SV(P)) printgap
%output
    printlevel normal
end
* xyz 0 1
C 2.4337247395 -1.7375083599 -2.8406396031
C 3.4539649425 -0.9056505187 -2.0904662797
O 3.2628248949 -0.9837320639 -0.6688369158
P 1.9649374256 -0.4074561005 0.050281532
S 1.4030452657 1.3204934551 -0.7203774152
O 2.4020310082 -0.3849952087 1.572380593
C 2.945191919 0.7873779552 2.2096192537
C 4.3387672288 1.0996383443 1.7066099837
S 0.7379016236 -2.1206426756 0.1020384758
C -0.4651790668 -1.7022130621 1.4157879305
S -0.719191258 0.0702243352 1.6858338025
P -1.9567159463 0.5375619021 0.0407531477
S -2.3074662384 2.443226952 -0.2410792568
O -3.2863602373 -0.3285583353 0.245065929
C -4.4398363608 0.1948674719 0.9196731452
C -4.2116741304 0.3148094307 2.4130171832
O -1.2437867344 -0.3216755844 -1.0821407765
C -1.8141781325 -0.561333738 -2.3884796315
C -1.511961453 0.5777432507 -3.3407553794
H 2.6548103921 -1.714647546 -3.9028469532
H 2.4480264372 -2.764938763 -2.4854991589
H 1.4382515759 -1.3244283448 -2.6756397083
H 3.3876312988 0.145503716 -2.3908103364
H 4.4697551894 -1.272890738 -2.2412628978
H 2.2671239034 1.6283243017 2.0281875196
H 2.9408428549 0.5339959762 3.2704645286
H 4.9790136404 0.2279647753 1.8125396409
H 4.2965343173 1.3800731252 0.6546915558
H 4.7513037794 1.9265515159 2.2759966508
H -0.0911070339 -2.0892341953 2.3608405977
H -1.4065892688 -2.1715268756 1.1374392223
H -4.6771539548 1.1731480737 0.4892746233
H -5.2311842054 -0.5188367463 0.6864788552
H -5.1283440692 0.6452660631 2.8905245246
H -3.91073911 -0.6416822479 2.8321352353
H -3.4285105262 1.0472341475 2.6079981949
H -1.337362584 -1.49019353 -2.7097687908
H -2.8902190166 -0.7161508863 -2.2815077733
H -1.8456928189 0.3122244974 -4.3386205055
H -2.0204613672 1.4854720429 -3.0214538378
H -0.4428749583 0.7781180444 -3.3574103347
*
