! pbe def2-sv(p) def2/J RI DEFGRID1 loosescf d4 GCP(DFT/SV(P)) printgap
%output
    printlevel normal
end
* xyz 0 1
C 1.2191362646 -0.8378760012 -2.3996357136
C 2.3196435751 -1.4657166862 -1.5706109301
O 2.1778198269 -1.1726913844 -0.173441853
P 2.4552387807 0.2808454433 0.4252487855
S 3.8008231444 1.3355417427 -0.5285842883
O 2.774032403 -0.056985125 1.9449940898
C 4.1212645577 -0.2950809139 2.4024432077
C 4.6938045226 -1.5790432395 1.8399849614
S 0.5636514734 1.1672556384 0.7175700089
C -0.2599011316 -0.1987241529 1.6026998019
S -1.1367643359 -1.3645063027 0.5265887814
P -2.4992216419 -0.0299247556 -0.3930811795
S -1.9432823579 1.0469337368 -1.9412466226
O -2.9949052723 0.7674018267 0.8803299098
C -3.4316611685 2.1434254574 0.8461381123
C -2.589449838 2.9627786047 1.8036902991
O -3.7661991292 -0.94568319 -0.6965485594
C -3.9237811693 -1.6587532849 -1.9335491641
C -2.9905938294 -2.8500510988 -2.0122468591
H 1.257967986 0.2491731095 -2.3187958916
H 1.3426889071 -1.1129873363 -3.4418534949
H 0.2427376767 -1.1727257037 -2.057296707
H 3.2969325331 -1.1017445322 -1.904324967
H 2.2864970908 -2.5547946812 -1.6177600158
H 4.7390257604 0.56115706 2.1145165578
H 4.0228670411 -0.3346206216 3.4880803904
H 4.8258090339 -1.484443516 0.763013402
H 5.6596894828 -1.7711243103 2.2965758725
H 4.025511946 -2.4120143153 2.0417363516
H -0.9724494625 0.263154071 2.2807551778
H 0.4841599858 -0.7774223667 2.1424927567
H -3.3397484726 2.5213640913 -0.1774301931
H -4.4826074265 2.1361480407 1.1403647421
H -2.9437674676 3.9884231884 1.7983744699
H -2.6677224467 2.5629863545 2.8108733644
H -1.5459710909 2.9463773528 1.492957743
H -4.9706612625 -1.9648991888 -1.9329894678
H -3.7388672422 -0.9642761506 -2.7601593299
H -3.1939925624 -3.4098985012 -2.9194068527
H -1.9559017223 -2.5090813106 -2.0307583451
H -3.1280073369 -3.4947645325 -1.1482456074
*
