! pbe def2-sv(p) def2/J RI DEFGRID1 loosescf d4 GCP(DFT/SV(P)) printgap
%output
    printlevel normal
end
* xyz 0 1
C 4.2644281863 -0.0838362294 -2.712713806
C 4.5928731717 0.7017241041 -1.459408832
O 4.0289833895 0.1009668323 -0.2809431518
P 2.4620547899 0.0315272661 -0.0126858376
S 1.4906092116 1.6636168331 -0.5208561295
O 2.434107592 -0.3609474504 1.5162402182
C 2.3491215585 0.5944176298 2.5969292895
C 1.5828730084 -0.0540464111 3.7317680994
S 1.8528122862 -1.805458865 -0.8475372555
C 0.0890427618 -1.4394479764 -0.9679094837
S -0.646200281 -1.0707864161 0.6643179584
P -2.3755081308 -0.1297548573 -0.0890809813
S -2.2012984591 1.0181325473 -1.6749795034
O -3.0503333153 0.5495070723 1.17783855
C -2.81562584 1.9214360481 1.5395599123
C -1.4227347759 2.1289470709 2.0967168657
O -3.2566722539 -1.4298252008 -0.2995489157
C -4.4369545644 -1.4361253178 -1.1295572722
C -5.5581013726 -0.6184522858 -0.5237463674
H 3.1968065931 -0.023073995 -2.9213675986
H 4.8103538754 0.3337030312 -3.5526738641
H 4.5365048354 -1.1286026117 -2.5854724113
H 4.2170229655 1.7271009159 -1.5375945852
H 5.6650920962 0.7132533697 -1.2593861821
H 3.3685423064 0.8501872492 2.8945351365
H 1.8435438914 1.4948284541 2.2314393975
H 1.4917975175 0.651541002 4.5510283918
H 0.5936575893 -0.3480130763 3.3898023628
H 2.1078624074 -0.941057257 4.0732126621
H -0.3799981768 -2.3264152807 -1.3876597999
H -0.0622116096 -0.5679174091 -1.6106683493
H -2.9712437896 2.5472954464 0.6545401746
H -3.5833443035 2.1315181046 2.2855634644
H -1.2358841571 1.4359740815 2.9129782379
H -0.6812972123 1.9656428829 1.3144804777
H -1.3257949243 3.1479190672 2.4574029159
H -4.1662639644 -1.048253744 -2.1168736066
H -4.6982237621 -2.4926391025 -1.2012882807
H -5.747966491 -0.9401499978 0.4968048986
H -5.2849005199 0.4358691334 -0.516026242
H -6.4578132327 -0.745159507 -1.1177378796
*
