! pbe def2-sv(p) def2/J RI DEFGRID1 loosescf d4 GCP(DFT/SV(P)) printgap
%output
    printlevel normal
end
* xyz 0 1
C 5.0298767359 -1.450376783 0.0419160135
C 4.5837334105 -0.6936388155 -1.1908918112
O 3.1558713862 -0.4796668008 -1.2000054807
P 2.4535639955 0.5032521165 -0.1743784043
S 3.4544620691 2.0917021522 0.3759545279
O 2.030539416 -0.4990231306 0.9880714254
C 1.6411542274 -0.0535447171 2.3024717642
C 2.7851029012 -0.2428750429 3.2789151563
S 0.6688623699 0.8866888857 -1.2522079892
C 0.0266335217 -0.8207843585 -1.2861050375
S -0.976354775 -1.2098325894 0.1580559497
P -2.6622346369 -0.0276495417 -0.4059623549
S -3.0453248829 0.0234353058 -2.3265620928
O -2.4345198454 1.448302662 0.0953687486
C -1.8097017687 1.8958375118 1.3207200683
C -2.301418076 1.1763073827 2.5578998277
O -3.8175469548 -0.5378419898 0.5533901436
C -4.1785529225 -1.9147320243 0.772295414
C -4.4854107869 -2.6558762251 -0.5120073783
H 4.4660109959 -2.3739411103 0.1423982941
H 6.0876987553 -1.6793926706 -0.0411309614
H 4.8685636305 -0.8381187431 0.9274003697
H 4.7678474071 -1.2577686329 -2.1062470431
H 5.0791753671 0.2806348419 -1.247946198
H 1.348466773 0.9995654508 2.2590929141
H 0.7799790123 -0.6702791019 2.5663003503
H 3.1196186619 -1.2760960989 3.2677788322
H 3.6158607442 0.4059891108 3.0092183656
H 2.4474079154 0.015208843 4.2772599465
H 0.8559695714 -1.5209495867 -1.3170038232
H -0.5975477902 -0.8907336615 -2.1785466524
H -0.727834295 1.7822732126 1.1975648785
H -2.0545363241 2.9589261696 1.3503349027
H -3.3831516244 1.2520708505 2.6290040269
H -2.0208615451 0.1254530047 2.5276180495
H -1.8511247634 1.6372687261 3.4318868578
H -3.3598820471 -2.3996520648 1.3110384899
H -5.0591312293 -1.8490981377 1.4136122925
H -3.5915274047 -2.7272893442 -1.1298164391
H -4.8347188133 -3.6560697732 -0.2767316063
H -5.2502340233 -2.1312160711 -1.0797715723
*
