! pbe def2-sv(p) def2/J RI DEFGRID1 loosescf d4 GCP(DFT/SV(P)) printgap
%output
    printlevel normal
end
* xyz 0 1
C 1.8685298399 2.7801547123 -0.3210662293
C 2.731369529 2.5206678756 0.8962654361
O 3.095699013 1.1338516218 1.0185967121
P 2.0270009483 -0.0111649728 1.2931217334
S 0.5979578033 0.4203903386 2.5560369972
O 2.9226460564 -1.182361175 1.8573646026
C 4.1500021664 -1.6403555324 1.2294253829
C 3.9295959558 -2.9677335623 0.5310993211
S 1.4452249333 -0.6332420073 -0.6573509604
C 0.1514457505 -1.7965782053 -0.1199096645
S -1.2493810771 -1.8812061941 -1.2708254036
P -2.1930117434 -0.03159571 -0.9290919839
S -3.9152224288 0.2319338514 -1.8242313297
O -1.1391829069 1.1311148848 -1.2408908893
C -1.0585300118 1.734251919 -2.5439791277
C -0.465936622 0.7851075389 -3.5657109353
O -2.1779286634 -0.0436619563 0.6556837329
C -2.8110848525 1.0062359151 1.4212813172
C -4.1880445169 0.5705864294 1.8777479386
H 1.7146457791 3.8493466968 -0.4285571145
H 2.3494644151 2.3909025788 -1.2152829913
H 0.9011030137 2.2943062775 -0.1987087838
H 2.2099922876 2.8223478065 1.8100416988
H 3.6910434702 3.0353374082 0.8292985489
H 4.5037996228 -0.8759535758 0.5359129635
H 4.8551637513 -1.7414515631 2.0558277138
H 3.2860918672 -2.8465719472 -0.3366551351
H 4.8891354533 -3.3555706089 0.203731089
H 3.4750787033 -3.677795171 1.2169197935
H -0.2052236819 -1.4917839194 0.8648218932
H 0.5573035811 -2.8053586656 -0.1019268362
H -2.0661997504 2.0409597341 -2.8430434988
H -0.4296289971 2.6125396289 -2.3939799262
H -1.13605364 -0.0613477318 -3.7156932359
H -0.3407982795 1.3062971584 -4.5090845245
H 0.4974995161 0.413255899 -3.224787521
H -2.1382531075 1.1731462668 2.2657810527
H -2.8648805509 1.9121990189 0.8118927531
H -4.1163204966 -0.3507888774 2.4489222659
H -4.6194862126 1.3475236473 2.5005556583
H -4.8328383201 0.4028676201 1.0173114851
*
