! pbe def2-sv(p) def2/J RI DEFGRID1 loosescf d4 GCP(DFT/SV(P)) printgap
%output
    printlevel normal
end
* xyz 0 1
C 3.6853744955 -2.3227988777 1.3545757612
C 2.8962177878 -2.8715795185 0.1773699092
O 2.7976395002 -1.8854683284 -0.8716220156
C 1.8236058763 -1.0164475665 -0.8314887835
O 0.96623683 -0.998115663 0.0413569532
C 1.8438937417 -0.0438385619 -1.9785159221
C 0.7651912209 1.0093009072 -1.7930615461
H 0.7176698402 1.68368214 -2.6510146666
C 0.9506418111 1.8370022548 -0.5311377593
O 1.8545874487 1.6597910352 0.2570106176
O 0.0343677011 2.7702751097 -0.4412597029
C 0.0164002244 3.6450068819 0.7039164287
C -1.4235006689 3.836739547 1.142337422
S -0.9293193758 0.2855933413 -1.7915259902
P -1.3461277155 -0.5140003342 0.1237728274
S -1.424898366 -2.4360252627 0.5523272948
O -0.8612463412 0.4462524707 1.317089001
C 0.0183299045 0.0626421247 2.3705839697
O -2.8511344373 0.0515196686 -0.0423954342
C -3.9140215991 -0.315526463 0.8365473592
H 3.77170919 -3.0898760038 2.1167343024
H 4.6777036955 -2.0208636245 1.0318509524
H 3.1745790005 -1.4605815772 1.7784849729
H 1.8869333856 -3.1641967584 0.4821793316
H 3.4083179937 -3.712234982 -0.290120414
H 1.6791127008 -0.5909869818 -2.9080070112
H 2.8315712122 0.4191733977 -2.0175927176
H 0.6289738832 3.200809905 1.4935095777
H 0.4632134254 4.5904049347 0.3849426937
H -2.0045758455 4.2642543021 0.3307584943
H -1.8598264554 2.8782410393 1.4130372208
H -1.4540476988 4.5006771551 1.9997778888
H 1.0255040107 0.4132942063 2.1444922946
H 0.0208821267 -1.0228603051 2.4815326061
H -0.3619779775 0.5377252857 3.2726193939
H -3.834445471 0.2372974438 1.772611379
H -3.881120272 -1.3885950261 1.0394994707
H -4.8321018902 -0.0560034854 0.3153990059
*
