! pbe def2-sv(p) def2/J RI DEFGRID1 loosescf d4 GCP(DFT/SV(P)) printgap
%output
    printlevel normal
end
* xyz 0 1
C 3.1288647852 -3.8770990221 -0.9347642314
C 3.9546275988 -2.6028925262 -1.0098819458
O 3.2203555807 -1.5630882808 -1.6862082451
C 2.413538747 -0.8027041567 -0.9865910433
O 2.2584002165 -0.8739941499 0.217803586
C 1.6948876935 0.2165728776 -1.8454300975
C 0.4151145467 0.6349698522 -1.1353926888
H -0.0465129975 1.4983656946 -1.6219612838
C 0.6812196937 0.9879145356 0.3139486548
O -0.026738809 0.5868420838 1.2228095721
O 1.6503157269 1.8458663337 0.4531729232
C 1.9620052818 2.2906630845 1.7912582035
C 3.0185787032 3.3717973335 1.6886144236
S -0.795151828 -0.7378242402 -1.1486528499
P -2.206767677 -0.0246985322 0.2627780762
S -2.5183627458 1.9155885547 0.3941376095
O -3.5017959015 -0.7630371069 -0.3414805818
C -4.0669482185 -0.3659507299 -1.5925799017
O -2.2266880012 -0.921384838 1.5726268519
C -1.8967845841 -0.4966592625 2.8947516471
H 2.8344919885 -4.1916100882 -1.9319688335
H 3.7169147722 -4.6612006014 -0.4694113421
H 2.2326713834 -3.7079129957 -0.3410874135
H 4.8499906132 -2.7431829702 -1.6152422528
H 4.2193051808 -2.2517896847 -0.0085631331
H 1.4819295124 -0.2091770178 -2.8245021783
H 2.345378088 1.0854895988 -1.9651289141
H 1.0400197895 2.6590036625 2.2519926328
H 2.3141131907 1.4225816064 2.3568311812
H 2.646292174 4.20021988 1.0936521529
H 3.2606138845 3.7272368216 2.6845201129
H 3.9149119924 2.9750873711 1.2220826133
H -3.4218449662 -0.6787242727 -2.4142060235
H -4.2009189939 0.7177131354 -1.6152015489
H -5.0296234603 -0.8674201728 -1.6497860066
H -2.5874737578 -1.0190495803 3.5535308373
H -2.0196222081 0.5831195405 2.9911174782
H -0.8656418056 -0.7678024378 3.1147135751
*
