! pbe def2-sv(p) def2/J RI DEFGRID1 loosescf d4 GCP(DFT/SV(P)) printgap
%output
    printlevel normal
end
* xyz 0 1
C 4.2914118845 0.830348933 -0.7890489688
C 2.9583910332 1.5421832166 -0.6918962155
O 2.1916010536 1.1518584112 0.4683647253
P 1.7491305785 -0.3356635911 0.8188734314
S 0.2931487194 -0.3688171338 2.1221189729
O 3.0575145515 -1.1083813826 1.324396499
C 3.3988482835 -1.2069708231 2.7160032491
C 3.9060224312 0.1131291837 3.2615060905
S 1.5198667308 -1.3443694953 -1.0263596768
C -0.1597679512 -2.0005270138 -0.8273940297
S -1.3283279084 -1.3252312057 -2.0486433289
P -2.0166285084 0.372994863 -1.0135631686
S -3.3675376282 1.4480202649 -1.93328765
O -0.6303999906 1.10472175 -0.7105542357
C -0.6253198674 2.523814356 -0.4346844647
C -1.3081315708 2.8550717122 0.8747687954
O -2.4377148896 -0.1443844666 0.4332138052
C -3.7846382189 -0.5371126172 0.7394511029
C -4.1469476851 -1.8635735976 0.1016785291
H 4.8802842267 1.0040856118 0.1076137162
H 4.1401690572 -0.2409488166 -0.9121250185
H 4.8315995615 1.2113033099 -1.6503023815
H 2.3536655155 1.3506400373 -1.5831810433
H 3.0907293402 2.6177958214 -0.5585567754
H 2.5144961327 -1.5353613351 3.2715908203
H 4.1655815467 -1.9820705247 2.748811116
H 4.7817725775 0.4419319711 2.7084773725
H 3.1262618373 0.8695363805 3.1725745529
H 4.1667070218 -0.0046207855 4.3085885441
H -0.5134029032 -1.7753432979 0.1819230918
H -0.1239996459 -3.0701415308 -1.0138559723
H 0.4321222984 2.7852886165 -0.4092110951
H -1.1190861413 3.0327454605 -1.2685775604
H -2.374357716 2.6445191436 0.8029647548
H -0.8867191665 2.2569721992 1.6796449699
H -1.1691894114 3.90868418 1.0951897279
H -3.7995208311 -0.5932897891 1.8289764433
H -4.4615092108 0.2518631005 0.3952600562
H -3.4410457333 -2.6343716717 0.4004645208
H -5.1448660785 -2.150448922 0.4173284686
H -4.1324595812 -1.7708017688 -0.9839905929
*
