! pbe def2-sv(p) def2/J RI DEFGRID1 loosescf d4 GCP(DFT/SV(P)) printgap
%output
    printlevel normal
end
* xyz 0 1
C 5.3525080693 -0.4448916049 -0.3218486639
C 4.8454510682 -1.1195705147 -1.5861996594
O 3.5180481945 -1.6446933739 -1.387322371
C 2.4897061474 -0.8522505886 -1.60930282
O 2.5685701921 0.2918061596 -1.9973977691
C 1.1775910892 -1.5719891617 -1.3489505856
C 0.1890076764 -0.6079719224 -0.7108479452
H 0.1630052674 0.3251864598 -1.2908447563
C 0.5471799526 -0.2238697301 0.7078469035
O -0.307858047 0.0113890731 1.5411952397
O 1.8320057616 -0.1667199869 0.9150867612
C 2.2991963319 0.3144848355 2.1963849006
C 2.3613596165 1.8323404038 2.2042765112
S -1.5051274579 -1.291471537 -0.6775295578
P -2.4956349319 0.3562405341 0.2192456461
S -1.7346901046 2.1529768199 -0.0411748229
O -3.9263724022 0.2080098038 -0.4903554949
C -4.0892762794 0.458559294 -1.8882547255
O -3.0515348325 -0.0470667171 1.6472378673
C -2.678144751 0.5545206879 2.8885189128
H 5.3391678152 -1.1472674817 0.5067642225
H 6.3679138654 -0.0975910861 -0.4814226406
H 4.7207835104 0.4063324208 -0.079574198
H 5.4489685327 -1.9898218559 -1.8442720872
H 4.819447782 -0.411313185 -2.4190340731
H 1.3565261893 -2.4424140446 -0.7202827074
H 0.7752511678 -1.9055148778 -2.3073175664
H 1.6244130967 -0.0533461726 2.973425748
H 3.2889306732 -0.128332942 2.3055505564
H 2.9992268844 2.1878255123 1.3992334331
H 1.3664714822 2.251691124 2.0654911075
H 2.7588603123 2.1720113922 3.1546669601
H -5.1627330828 0.4819595481 -2.0573379136
H -3.6274505067 -0.3390392103 -2.4711542202
H -3.6425019901 1.4194769668 -2.1520450314
H -1.9959652261 -0.1108927749 3.413817424
H -3.6006679122 0.6890558928 3.4493665366
H -2.1940134608 1.5172257451 2.7167987164
*
