! pbe def2-sv(p) def2/J RI DEFGRID1 loosescf d4 GCP(DFT/SV(P)) printgap
%output
    printlevel normal
end
* xyz 0 1
C 4.5476013807 -0.7800479765 -2.0321261999
C 3.6495245452 -1.9253677062 -1.6124383956
O 3.0202959869 -1.7077311432 -0.3374244444
P 2.2034982624 -0.4143973551 0.0879082561
S 3.2147003425 1.1990982697 0.5759531373
O 1.3209429508 -1.0011488184 1.2663609893
C 1.6796255562 -0.8267926735 2.6511654394
C 2.8714204065 -1.6855550573 3.0166937802
S 0.7796318015 -0.1932819416 -1.4665607008
C 0.2024991127 1.4433316709 -0.9526518603
S -0.7921806366 1.3954823264 0.5543842287
P -2.4812695154 0.4321937979 -0.3344754094
S -2.8738084908 0.9490746898 -2.1786076541
O -3.6085374466 0.6145746908 0.7712127263
C -3.9817054278 1.8604369857 1.3905398614
C -4.3336336898 2.9350673952 0.3838006689
O -2.2346736069 -1.1219000244 -0.2649452076
C -2.0025743183 -1.8431840626 0.9710001839
C -1.2432164439 -3.1095983729 0.6346990284
H 3.9562682415 0.1190239949 -2.2018996108
H 5.2817882094 -0.5687121055 -1.2581931729
H 5.060824078 -1.0426087381 -2.9516565849
H 4.2189112391 -2.8448156991 -1.4638568814
H 2.8641784329 -2.0921853191 -2.3553859418
H 1.8938599795 0.2324696713 2.8270601255
H 0.7835251127 -1.119019052 3.1998659713
H 3.0857226993 -1.5779847617 4.0752317345
H 2.6685844666 -2.7284670472 2.7893617705
H 3.7403852018 -1.3647167688 2.4429244991
H -0.4042121732 1.8322523126 -1.7711939273
H 1.0608478071 2.0835624415 -0.7456017921
H -4.8425438567 1.591580544 2.0052701387
H -3.1545597625 2.1839905336 2.0285569727
H -4.6893990608 3.8166963188 0.9071136154
H -3.4568201374 3.2011842766 -0.204887238
H -5.1063097962 2.5814086084 -0.2947285362
H -1.4315573637 -1.2021815699 1.6494539704
H -2.9771912729 -2.0606908453 1.4118309391
H -1.1264349008 -3.705503586 1.5341360578
H -1.7893420457 -3.6809461541 -0.1103810179
H -0.261173107 -2.864646401 0.2371940672
*
