! pbe def2-sv(p) def2/J RI DEFGRID1 loosescf d4 GCP(DFT/SV(P)) printgap
%output
    printlevel normal
end
* xyz 0 1
C 4.5878575805 0.5440212996 -2.1653581845
C 4.4727270318 1.1752048743 -0.7932007595
O 3.7106877058 0.3586332458 0.1127290849
P 2.1489549083 0.1103699297 -0.066086482
S 1.1669051068 1.7185586049 -0.6291621589
O 1.7675563072 -0.4885557829 1.3485558492
C 1.7209068159 0.3397847624 2.5317351565
C 0.9545845939 -0.418407751 3.5953500687
S 2.0221845553 -1.6312850018 -1.2300424918
C 0.2413657964 -1.6506756049 -1.5634608823
S -0.7673624323 -1.9168569174 -0.073452791
P -1.8947669308 -0.1324014785 -0.0466711608
S -2.0898277564 0.7384448717 -1.7998662451
O -1.2513336306 0.6366826479 1.1778148236
C -1.9373773133 1.6614978904 1.933830571
C -2.2376781671 2.8854047258 1.0944300262
O -3.280204274 -0.5810912649 0.5929872999
C -4.3138915676 -1.2112843947 -0.1880789045
C -5.6424992164 -0.9569325396 0.4954357355
H 4.9607453282 -0.4737217829 -2.083189353
H 3.6104920707 0.5208689372 -2.6461729224
H 5.2661465872 1.1312154428 -2.7759913931
H 3.9922435296 2.1567886806 -0.8595947213
H 5.4447067245 1.2675611732 -0.3069507444
H 2.7493156637 0.5419133275 2.8411088636
H 1.2325057342 1.2850736112 2.2711902817
H 1.4483100692 -1.3636784423 3.8007062737
H 0.9169387172 0.1755857139 4.5028301637
H -0.0560945306 -0.6213729929 3.2508202716
H 0.0801984816 -2.4894540169 -2.2358991946
H -0.0695848253 -0.7103106771 -2.0292206777
H -2.852004246 1.2296156229 2.3455404771
H -1.2388612061 1.894075831 2.7397230459
H -2.9601264549 2.6425404558 0.316503852
H -2.6434193656 3.6691850778 1.7260545553
H -1.3282427364 3.2421093669 0.6135674723
H -4.2939833111 -0.7885579823 -1.1983932388
H -4.0895335244 -2.2793627501 -0.2407644919
H -5.6196575802 -1.3474358866 1.5087538131
H -5.8491791539 0.1091636469 0.5312224448
H -6.428703292 -1.4535363158 -0.0634684906
*
