! pbe def2-sv(p) def2/J RI DEFGRID1 loosescf d4 GCP(DFT/SV(P)) printgap
%output
    printlevel normal
end
* xyz 0 1
C 5.5614468557 0.0073710209 -1.5505473854
C 4.3966736748 0.6861042114 -0.8587438218
O 3.2807456399 -0.2277147666 -0.8643783257
P 2.0788648413 -0.081764092 0.161444431
S 2.6087100452 0.1894088859 2.0317347811
O 1.2159339947 -1.3646424284 -0.1542053055
C 1.3490193996 -2.5943157077 0.5881830405
C 2.7032850679 -3.2344130156 0.3739789897
S 0.8995451772 1.4413812049 -0.6980455559
C -0.0811779813 1.8018442299 0.7874789046
S -1.0950434175 0.4084024645 1.3525337705
P -2.2585250803 0.0684430746 -0.4216773709
S -1.5062472605 -0.9859910173 -1.8855264173
O -2.6955084208 1.5129286613 -0.8725501776
C -3.5572844992 2.3617894792 -0.0640361498
C -3.4331083274 3.7770557537 -0.5886440073
O -3.6081746192 -0.5259158037 0.1798657379
C -3.7930069001 -1.9350826279 0.3948333892
C -2.9018399414 -2.4552428354 1.5039415471
H 6.3996181025 0.6951210373 -1.5918579794
H 5.8554096251 -0.8843467457 -1.0042115871
H 5.2768409758 -0.276171279 -2.5597141771
H 4.0939964579 1.5951416323 -1.3855307007
H 4.6366165411 0.9366053988 0.1803849148
H 1.1824477824 -2.3764498089 1.6485835301
H 0.539873548 -3.2157092391 0.2002086431
H 3.4818473655 -2.5939078678 0.7875162728
H 2.7310365978 -4.1959721581 0.8768131484
H 2.8869784049 -3.372346284 -0.6884427701
H -0.7070166303 2.655165896 0.5409620489
H 0.5891280462 2.0297452543 1.6172152078
H -4.5767616397 1.9859533923 -0.1641564841
H -3.2510614847 2.283367572 0.982876061
H -3.7247090313 3.811110111 -1.6343384524
H -4.0833571087 4.4273067175 -0.012317612
H -2.4087230786 4.1309073535 -0.5058026682
H -4.8500696591 -2.0257681995 0.6478845805
H -3.586048684 -2.4576471131 -0.5446521482
H -3.0550161364 -1.8826180593 2.4151546566
H -3.1259209217 -3.5004964426 1.6899811446
H -1.8567829981 -2.3644723022 1.207619111
*
