! pbe def2-sv(p) def2/J RI DEFGRID1 loosescf d4 GCP(DFT/SV(P)) printgap
%output
    printlevel normal
end
* xyz 0 1
C 4.5664124262 -1.6996962252 -0.5729950313
C 4.6055612249 -0.2169760125 -0.2650652857
O 3.4554446059 0.2100356503 0.4845946068
P 2.0009817454 0.2967396975 -0.1578698899
S 2.0086828802 0.8627618612 -2.041703683
O 1.2523568253 1.1582648246 0.939561968
C 1.7180179633 2.4165185211 1.4695984928
C 1.8918249108 3.4705329201 0.396195756
S 1.1401210996 -1.5879112958 0.2069070877
C -0.0119378574 -1.7037426486 -1.2030264539
S -1.7388884985 -1.8404274871 -0.6994607339
P -1.9698255609 0.0734808904 0.2031243958
S -1.3531871811 1.5786320108 -0.8882995237
O -1.2582913495 0.0283089037 1.6105298646
C -1.7670314267 -0.6062795504 2.8110080144
C -1.8909179646 -2.1094730102 2.6769016929
O -3.5057191778 0.1147709173 0.6086572397
C -4.5381965919 0.5570201714 -0.2905852807
C -4.7265069607 -0.3838890941 -1.4625099217
H 4.3980381309 -2.2706056757 0.3364769337
H 3.7619837209 -1.9113680477 -1.2756433461
H 5.5100458691 -1.9972955428 -1.0186315743
H 4.6499993068 0.3660890607 -1.1907096183
H 5.4475675504 0.0400995189 0.37907785
H 0.9332466811 2.6959423327 2.1752103985
H 2.6554358951 2.2357449941 2.0011422555
H 2.1322176958 4.4229973022 0.8577090131
H 2.6951954571 3.1895888296 -0.2838895886
H 0.9737993182 3.5704445665 -0.1809611563
H 0.2105241987 -2.6180643693 -1.7470629159
H 0.1298218943 -0.8240357261 -1.8378920703
H -1.0244825514 -0.3331220178 3.5626902578
H -2.7296763263 -0.1520146915 3.0526288148
H -2.6743573868 -2.3665681721 1.9676303048
H -0.9507693007 -2.5381533231 2.3362689275
H -2.1417790792 -2.5267016154 3.6472935937
H -5.4275849192 0.5982781278 0.3400107817
H -4.282343779 1.5616356816 -0.6414757652
H -5.6037341115 -0.0811330202 -2.0252308932
H -3.857711357 -0.3430542152 -2.1174454016
H -4.8544991522 -1.4052728287 -1.1135247054
*
