! pbe def2-sv(p) def2/J RI DEFGRID1 loosescf d4 GCP(DFT/SV(P)) printgap
%output
    printlevel normal
end
* xyz 0 1
C 4.8422860082 -1.9437590713 -0.6967010752
C 4.4147692317 -1.2815928584 0.5957502459
O 3.7001428746 -0.0478552957 0.3841529191
P 2.4159081437 0.1213701188 -0.5364996079
S 2.6596477144 0.2115071217 -2.4742363968
O 1.8277469533 1.4911238676 -0.0143642676
C 1.5462528862 1.7720559192 1.3754284287
C 2.6512263835 2.6088941613 1.9856157718
S 1.1347810544 -1.4220072857 0.180510406
C -0.0624598911 -1.3546642013 -1.1721816323
S -0.8138460801 0.2863775942 -1.4131916226
P -2.2381924554 0.2400451384 0.1535090368
S -3.2362316752 1.9074066029 0.3917248798
O -1.3420701209 -0.2193354914 1.3714636455
C -1.7576821227 -0.0140023285 2.740322547
C -2.9728893422 -0.8465857992 3.0862815423
O -3.0829711262 -1.0847047504 -0.1334931378
C -4.1162373336 -1.1142224376 -1.1364743953
C -5.4743970266 -0.8490213378 -0.5162830107
H 5.4466866229 -2.8164896181 -0.4714493919
H 3.9686236492 -2.2531153862 -1.2682578088
H 5.4197304616 -1.2517076097 -1.3050647514
H 5.2773057636 -0.9785586987 1.1919636977
H 3.7741987815 -1.9490178825 1.1787575167
H 0.596055367 2.313090916 1.3624300014
H 1.4205681502 0.8266681091 1.9119129444
H 3.5883057429 2.0587089717 1.9716430579
H 2.7760890446 3.5269948916 1.4181193817
H 2.3889362081 2.8526032604 3.0103376474
H -0.8333386476 -2.0871130501 -0.9461828105
H 0.4463762095 -1.5767974504 -2.1095956916
H -0.8837753997 -0.3088024235 3.3226263534
H -1.9648756084 1.0511230999 2.8827671187
H -3.8299746517 -0.501686384 2.5095751582
H -2.7896205099 -1.8927651035 2.8564552556
H -3.1929305126 -0.7400613714 4.1438731774
H -3.8893354891 -0.3753626101 -1.9119218767
H -4.0655184344 -2.1177382881 -1.5634830158
H -5.6712962414 -1.5689011257 0.2730919342
H -5.5063652708 0.1543940919 -0.0971425091
H -6.2396484233 -0.9357788279 -1.2808098187
*
