! pbe def2-sv(p) def2/J RI DEFGRID1 loosescf d4 GCP(DFT/SV(P)) printgap
%output
    printlevel normal
end
* xyz 0 1
C 4.4764479947 -3.2030104414 -1.8122526768
C 2.9809432239 -2.9961952025 -1.9942385546
O 2.5686495157 -1.7247816872 -1.4589753183
C 2.2576522359 -1.6531695171 -0.1806588238
O 2.2918163064 -2.5844797627 0.5915077636
C 1.8502852208 -0.2474382868 0.2246002686
C 0.9854047243 0.4201356421 -0.844248382
H 1.5545374058 0.5374072845 -1.768874635
C 0.4838821498 1.7654765946 -0.3633976701
O -0.7036693916 1.9936008855 -0.2155911251
O 1.445605985 2.6055835905 -0.1299339924
C 1.1136634854 3.8933043902 0.4414001698
C 1.0159214199 3.7917272438 1.9543993824
S -0.4702428534 -0.5899372827 -1.2932808502
P -1.7929450465 -0.1400611002 0.2927244235
S -1.2538976368 0.3238388894 2.132357158
O -3.0913497639 0.6206684523 -0.2455988298
C -3.4462708676 1.9782700397 0.0163771032
O -2.3695137743 -1.6413922311 0.2272264411
C -3.4126090023 -2.0785161504 1.100564575
H 4.7691384938 -4.1352181976 -2.283800831
H 5.0258072567 -2.3831780544 -2.2663606198
H 4.7202151032 -3.2521133745 -0.7534456734
H 2.4153559737 -3.7858793714 -1.4919106368
H 2.7088451631 -2.9472515121 -3.0485358944
H 2.755264848 0.3465302741 0.3709588029
H 1.319794618 -0.3155957437 1.1774799822
H 1.9339304519 4.5415047431 0.1348222439
H 0.1693711487 4.2347630469 0.0110201342
H 1.9607656962 3.4581940937 2.3735218691
H 0.766769378 4.7646188405 2.3643172627
H 0.2407678323 3.0816209285 2.2385109549
H -3.0565686947 2.6148955466 -0.7748347769
H -3.0399534004 2.2936828705 0.9782562762
H -4.5337430785 2.0021152019 0.0338927065
H -3.4332601564 -3.1621269196 1.015975107
H -4.3650930551 -1.6501025767 0.7898732386
H -3.1903942148 -1.7827908065 2.1284498872
*
