! pbe def2-sv(p) def2/J RI DEFGRID1 loosescf d4 GCP(DFT/SV(P)) printgap
%output
    printlevel normal
end
* xyz 0 1
C 4.5133905981 0.9641723319 -1.9898323216
C 4.0532768138 0.0790723207 -0.8502837936
O 2.9426354842 0.7468948154 -0.191339319
P 1.9532484476 -0.0022366738 0.7792989088
S 0.8763529337 1.2227186897 1.8532073555
O 2.9404125675 -0.9130397442 1.6356859724
C 2.5434522748 -1.5125500262 2.8800022815
C 1.5569660114 -2.6424077952 2.6674840166
S 0.9838091938 -1.4515259223 -0.4796553182
C 0.6268320806 -0.400769694 -1.9160432273
S -0.2757809614 1.1184995841 -1.5198076437
P -2.068152522 0.1631837582 -0.9410923531
S -2.6400919219 -1.3594893425 -2.0211954974
O -3.1444881708 1.324400938 -0.9726349454
C -2.9244730633 2.7018115095 -0.5913887098
C -2.6830760834 2.8642037491 0.8947376682
O -1.7512647312 -0.1868267163 0.5844413468
C -2.3450767582 -1.3092685763 1.2569574401
C -3.8156707997 -1.0731435941 1.5308144067
H 3.7115841819 1.116814485 -2.7077430617
H 4.8192759096 1.932992901 -1.605876827
H 5.354328731 0.4926536501 -2.4882350775
H 4.8414128492 -0.0595630139 -0.1083635916
H 3.7203222572 -0.9018728637 -1.2010698683
H 3.4796410572 -1.8688038763 3.3117751442
H 2.111028409 -0.7339432114 3.5171085342
H 1.3339641659 -3.1127597726 3.6195816921
H 0.6341605151 -2.2504653016 2.2404811877
H 1.9670150934 -3.3815687551 1.9843035124
H 0.0237923362 -1.0149192692 -2.5869407529
H 1.5514633979 -0.0889009122 -2.3946409883
H -2.0802857067 3.0902759037 -1.1680899477
H -3.8445628993 3.1976379764 -0.9058161734
H -3.5050666594 2.4322280327 1.4594446081
H -1.7556987663 2.3770583072 1.1922232545
H -2.6086313677 3.9220687775 1.1267947329
H -2.2024061112 -2.2024593803 0.6394535753
H -1.7711419699 -1.3969068489 2.1812339105
H -4.3441034643 -0.9315655403 0.5877364888
H -4.2304168905 -1.9346567505 2.0443573284
H -3.94668775 -0.18702118 2.1462375324
*
