! pbe def2-sv(p) def2/J RI DEFGRID1 loosescf d4 GCP(DFT/SV(P)) printgap
%output
    printlevel normal
end
* xyz 0 1
C 3.1299847026 -2.8778955723 -1.2836146328
C 4.1643681736 -2.0313351617 -0.5730468665
O 3.8870979764 -0.6130884828 -0.6763602724
P 2.635237603 0.1336242282 -0.0848683392
S 2.9994910402 2.0560795097 0.002016415
O 2.422384716 -0.6630668833 1.2780463457
C 1.293744311 -0.5413679188 2.159592558
C 1.3000451133 0.7633917181 2.9304163943
S 0.9605732972 -0.3965521846 -1.3160798918
C 0.156460885 1.2164342581 -1.4016883251
S -0.8329144037 1.6099085216 0.0636924224
P -2.3705556522 0.208547365 -0.3168197219
S -2.9708605115 0.0489276674 -2.1688693319
O -3.5563386811 0.6128751751 0.6506599394
C -3.4353200647 0.6549140575 2.0951629041
C -3.1568278479 2.0641407165 2.5772616421
O -1.6986911079 -1.1046294425 0.3115904885
C -2.0068443415 -2.4233241076 -0.1783614752
C -3.3975007722 -2.8550364362 0.2398125139
H 2.1599375597 -2.778786559 -0.7994674736
H 3.0321915344 -2.5676781851 -2.3208708787
H 3.4377376978 -3.918363527 -1.2489533622
H 5.147219151 -2.1250824678 -1.0373441176
H 4.2263444596 -2.2905476793 0.4852198658
H 0.3745867174 -0.646349821 1.5752939243
H 1.399752069 -1.3963601162 2.8305207218
H 2.2471630983 0.8874102756 3.4489737839
H 1.1616034748 1.6064837093 2.2563527507
H 0.4917873097 0.7557982691 3.6546225073
H -0.49411196 1.199639955 -2.2761227232
H 0.9168662904 1.9947835397 -1.478264983
H -4.4033838713 0.3005787261 2.4535100912
H -2.6469871288 -0.034334043 2.4063105577
H -3.167282496 2.0761031565 3.6626317479
H -2.1852905613 2.4059529442 2.2262058784
H -3.9195088959 2.7422844466 2.204716925
H -1.9120470879 -2.4201239995 -1.2684175339
H -1.2342831489 -3.0581425911 0.2572650754
H -3.5860928771 -3.861147076 -0.120974767
H -3.4937464803 -2.8362193578 1.3222511969
H -4.1357458587 -2.180665403 -0.1940174803
*
