! r2scan-3c def2/J RI DEFGRID2 scfconv6 printgap
%output
    printlevel normal
end
%cpcm
    smd true
    smdsolvent "water"
end
* xyz 0 1
C -0.6082539049 -0.0085986702 -0.4690780096
C 0.608193367 0.0086129036 0.468978903
O 1.8277222404 -0.018776722 -0.2351930145
O -1.827671798 0.0187640952 0.2352625586
H -0.6239611844 -0.9393043833 -1.0425387771
H -0.5376965714 0.8319049266 -1.1716523868
H 0.5376347845 -0.8318375238 1.1716208054
H 0.6237531182 0.9393863814 1.0423606686
H 1.9027342509 -0.8530308035 -0.7189406033
H -1.902543712 0.8529122247 0.7192273593
*
