  29
        -50.87668311
 C         -1.6298398412       -3.1854154979       -0.4788478650
 C         -0.6057707962       -2.2432924221        0.0623304610
 O          0.5584482166       -2.1889638338       -0.2744447076
 O         -1.1274543475       -1.4313085254        0.9874279582
 C         -0.2886010364       -0.3983818862        1.4972005175
 C         -0.1210560160        0.7312122831        0.4733246226
 C          1.0770567724        1.6191653537        0.8245724007
 O          2.2702335303        0.8462051284        0.7742446649
 C          2.7670654904        0.5440465479       -0.4333699584
 O          2.3015000108        0.9848453268       -1.4611487481
 C          3.9259666608       -0.3904480434       -0.3273621304
 O         -1.2922058230        1.5409387094        0.4330083898
 C         -2.2519061589        1.2208012578       -0.4454816153
 O         -2.1574798606        0.2977206123       -1.2242475178
 C         -3.4267789264        2.1342395048       -0.3164541617
 H         -2.2878720349       -3.5162635507        0.3179921475
 H         -1.1438032126       -4.0219859382       -0.9691226114
 H         -2.2224445322       -2.6328206948       -1.2073377975
 H         -0.7895198607       -0.0279230647        2.3915030898
 H          0.6972660360       -0.8090947320        1.7350955505
 H          0.0357862600        0.2924308275       -0.5223039735
 H          1.0006723310        1.9922860955        1.8450069056
 H          1.1340981420        2.4455814937        0.1098289198
 H          4.6027977260       -0.2401260535       -1.1618141016
 H          3.5258364927       -1.4027501226       -0.3810296238
 H          4.4270262260       -0.2583356993        0.6252835697
 H         -3.8550428461        2.3172049372       -1.2970799340
 H         -3.1261539254        3.0583721453        0.1644846923
 H         -4.1773124212        1.6381843592        0.2958548958
