! pbe def2-sv(p) def2/J RI DEFGRID1 loosescf d4 GCP(DFT/SV(P)) printgap
%output
    printlevel normal
end
* xyz 0 1
C 3.1855928876 2.1920727544 -1.6345980287
C 3.7652355391 1.8387698993 -0.2800250926
O 3.5679100459 0.4490781429 0.0269781298
P 2.177930779 -0.1002010521 0.5667428473
S 1.3165910579 1.0905398219 1.8697857033
O 2.5496709597 -1.5659585859 1.0383599942
C 3.7334249824 -1.897008399 1.8008948955
C 3.7557460925 -1.2166320785 3.1532149628
S 1.0722290817 -0.5826128469 -1.1891294318
C -0.057731877 -1.8054709576 -0.4701697162
S -1.2658130858 -1.1000191049 0.6752606893
P -2.3587821421 0.0010670594 -0.7940384925
S -2.4351019911 -0.8138443459 -2.5694891588
O -1.7179192064 1.4362679613 -0.8981016696
C -1.6669547731 2.3776775116 0.2049944944
C -0.7337280397 3.5001996781 -0.1937848478
O -3.7240418372 0.3257089451 -0.0478525641
C -4.5572803299 -0.6345305622 0.6289902812
C -4.9230791652 -1.8157571771 -0.2447594849
H 3.3851099927 3.2361404995 -1.8532690593
H 3.6262601495 1.5691578531 -2.4083206851
H 2.107970323 2.0276448083 -1.6370740751
H 3.3048770436 2.4388543409 0.5130141627
H 4.8481678261 1.9685816872 -0.2615365684
H 3.6740317696 -2.982208819 1.8997234645
H 4.6090173996 -1.6237212174 1.2087762479
H 2.8489218478 -1.4463799677 3.7079531034
H 4.6182826007 -1.5611693095 3.7150305193
H 3.819330498 -0.1363109282 3.0307247624
H 0.507178634 -2.552687759 0.0800527057
H -0.5872543834 -2.2430671373 -1.3180465931
H -2.6809191902 2.7384827006 0.3846370763
H -1.3012942858 1.8602619867 1.0973946527
H -1.0574020546 3.9397030423 -1.1326740878
H -0.7359338767 4.2546754099 0.5858848009
H 0.277505951 3.1193232185 -0.3100325719
H -4.0311681284 -0.9653914448 1.5288844982
H -5.4393286742 -0.0550350344 0.9073195246
H -5.6195349514 -2.4553706165 0.2876624383
H -5.3799994991 -1.4753713068 -1.1709282607
H -4.0315617152 -2.389578621 -0.4936789631
*
