  19
        -29.55598999
 C         -2.7339412635       -0.2566751853       -0.0001017900
 C         -2.3436377295        1.0909248920        0.0001144717
 C         -1.0173841024        1.4232828403        0.0001644402
 C         -0.0270127362        0.4211883041       -0.0000001412
 C         -0.4160455513       -0.9425705376       -0.0000295290
 C         -1.7930767477       -1.2485323762       -0.0001524439
 C          0.5749569668       -1.9468070032        0.0000032098
 C          1.8984452395       -1.6093189664        0.0000814553
 C          2.2959816792       -0.2653048642        0.0000775897
 C          1.3594638086        0.7389308463       -0.0000159549
 O          1.6995781936        2.0551040286       -0.0001863801
 H         -3.7852298832       -0.5037066792        0.0000253735
 H         -3.0981996448        1.8630962647        0.0004890583
 H         -0.7011166305        2.4553111760        0.0004175517
 H         -2.0899751819       -2.2873763073       -0.0001550379
 H          0.2682753806       -2.9819318313        0.0000619252
 H          2.6581622406       -2.3763843971        0.0003451807
 H          3.3494259188       -0.0246519893        0.0002539401
 H          2.6634644685        2.1557696785       -0.0001633384
