! r2scan-3c def2/J RI DEFGRID2 scfconv6 printgap
%output
    printlevel normal
end
* xyz 0 1
C 4.7650259015 -2.0182444931 0.0039564066
C 4.2537325719 -1.6800623724 -1.3814331096
O 2.8292597304 -1.4550531045 -1.3955797672
P 2.157444355 -0.2507706936 -0.6152304791
S 3.1632910836 1.4309193729 -0.5158063115
O 1.7875187598 -0.8941215938 0.7934973147
C 1.8813658052 -0.2296247364 2.0700580034
C 0.78669493 -0.7577222196 2.9741788317
S 0.3836674867 -0.2430354883 -1.7671506364
C -0.1379161863 1.4371804135 -1.3237760932
S -0.5861758576 1.5715776921 0.4205166884
P -2.3056575106 0.3154843782 0.3202406424
S -3.3342279482 0.4259206682 -1.3508710721
O -3.0420619666 0.6343106117 1.6840462173
C -3.3311243403 1.9517116182 2.1890324725
C -4.1123074522 2.7980363613 1.2050686
O -1.8242469323 -1.1454769355 0.6945144165
C -1.962596399 -2.3058147757 -0.1503443665
C -0.7775783357 -3.220448184 0.0833057859
H 4.2012055069 -2.8486421232 0.421203011
H 5.8149676815 -2.2876603709 -0.0560769911
H 4.6610719674 -1.1519262147 0.6570622589
H 4.3924190263 -2.5075329243 -2.078509624
H 4.747947762 -0.7825699071 -1.7662645246
H 2.8689581924 -0.4553387041 2.4805496275
H 1.7975020856 0.8512285573 1.923100922
H 0.8697567952 -0.2797074146 3.9446588797
H -0.1934804395 -0.543975368 2.5546229774
H 0.8887429299 -1.8326676281 3.0907855095
H -1.0041371353 1.6690564135 -1.9437388052
H 0.6791561516 2.1371377769 -1.4970322253
H -3.9091823784 1.7559880591 3.0938529187
H -2.3852659197 2.4345142804 2.450171
H -4.384282446 3.7382228485 1.6739452832
H -3.5083795508 3.0039606865 0.3223853388
H -5.014210742 2.2782084927 0.8904557257
H -2.8984649248 -2.7957826083 0.1287590236
H -2.025949205 -1.9882796528 -1.1963346821
H -0.7199562882 -3.4894595257 1.1339119281
H -0.9022378146 -4.1176075707 -0.5141249482
H 0.1483683873 -2.7285355153 -0.2057014873
*
