! pbe def2-sv(p) def2/J RI DEFGRID1 loosescf d4 GCP(DFT/SV(P)) printgap
%output
    printlevel normal
end
* xyz 0 1
C 3.791262472 1.2514797739 -2.1944892572
C 4.305738262 1.1876603999 -0.770412551
O 3.770828866 0.0600645375 -0.0631890977
P 2.2394985239 -0.0270631948 0.3665038512
S 1.5319900855 1.6796762894 1.0270139541
O 2.2426813081 -1.2384392485 1.3816670564
C 2.3414995168 -1.0355987492 2.8087483542
C 3.7221981249 -0.5618838098 3.2093919543
S 1.316009683 -0.9599280939 -1.2998808644
C 0.0561394281 -1.9632590565 -0.453295442
S -0.9936425106 -1.0368486872 0.6873775679
P -2.1612991029 0.0671049765 -0.7283675444
S -2.007649659 -0.5760991914 -2.5710167126
O -1.7907933659 1.5882727381 -0.5803845143
C -2.3258132566 2.4925706645 0.4202583728
C -2.0523913175 2.0352402149 1.8363891771
O -3.6293044666 0.0100937637 -0.123048677
C -4.4108287283 -1.1999724282 -0.1928112253
C -5.8551837689 -0.8364106518 0.085335618
H 3.998961908 0.3199344816 -2.7149340804
H 2.7120493421 1.4120963703 -2.1924664293
H 4.2680996512 2.0737597039 -2.7182139395
H 4.0402167325 2.099632269 -0.2242784938
H 5.3853184437 1.0356017149 -0.7375169196
H 1.5784180736 -0.310803917 3.1092943925
H 2.1083274939 -2.0149468006 3.2279054806
H 3.7871993941 -0.5156522877 4.2918523472
H 4.4787070112 -1.2425238231 2.8279849569
H 3.9047131446 0.4312289096 2.8007271031
H 0.542176184 -2.7393613114 0.131543525
H -0.552931455 -2.3828673425 -1.2545100255
H -1.8158084015 3.4316829453 0.2008330647
H -3.3974908564 2.5928171985 0.2390333064
H -2.5228956647 1.0716628624 2.0232750917
H -0.9816476985 1.9449797481 2.0026427958
H -2.4560743798 2.7685943712 2.5271743815
H -4.2904629908 -1.6343098619 -1.1907733677
H -4.023086101 -1.8991896162 0.5531013094
H -5.9431339277 -0.3817277245 1.0677012711
H -6.2140132949 -0.1344713939 -0.6621150859
H -6.460561401 -1.7361015081 0.0501040143
*
