! pbe def2-sv(p) def2/J RI DEFGRID1 loosescf d4 GCP(DFT/SV(P)) printgap
%output
    printlevel normal
end
* xyz 0 1
C 3.2487931491 -3.1580350449 0.4912687871
C 2.8560867799 -1.7539260018 0.9202582119
O 2.6798048169 -0.8934561795 -0.223225609
C 1.5414977906 -0.9248954756 -0.8747988967
O 0.5892728329 -1.6220952564 -0.5724172156
C 1.5229235128 0.034261664 -2.0440719293
C 0.3391457995 0.9966524279 -1.9083201651
H 0.2877489555 1.6416057285 -2.7894209804
C 0.4468134962 1.8671117957 -0.6684520434
O -0.4801622488 2.024184971 0.1016263481
O 1.6304133017 2.4032660554 -0.5492696759
C 1.927005893 3.1843217694 0.6297149474
C 2.4911768431 2.2901771695 1.7212623615
S -1.2760152722 0.141312154 -1.8690439258
P -1.6209614122 -0.2790756329 0.1763043839
S -0.5093010465 -0.2849020101 1.8093563264
O -2.9014675623 0.6707483641 0.2892554802
C -3.6498823474 0.7892917223 1.5012149017
O -2.3981096319 -1.6826778695 0.0498002545
C -1.8359353471 -2.9683559059 0.2991364794
H 2.4435054937 -3.6159831863 -0.0784316752
H 4.1451306804 -3.1247804265 -0.1218913935
H 3.4391285952 -3.7588563954 1.3742072134
H 3.6492969621 -1.2767008654 1.4951962389
H 1.9285623373 -1.7608293498 1.500169408
H 1.3950128393 -0.5420799227 -2.9609923991
H 2.457877105 0.5925637298 -2.0701148283
H 2.6611619876 3.9149001655 0.290452522
H 1.0121913754 3.680530098 0.9633580118
H 1.7470756839 1.557904852 2.0328765975
H 3.3695842395 1.7649716297 1.3567815598
H 2.7628464678 2.8967470237 2.5784264196
H -2.9748240155 0.9230696964 2.3493275115
H -4.2587380532 -0.102580425 1.6510596228
H -4.276536443 1.6681652056 1.3733105431
H -1.148659333 -2.9168966016 1.1454145665
H -1.3006906356 -3.3145110802 -0.5829306534
H -2.6768228454 -3.6192837395 0.5265658538
*
