  19
        -29.55677491
 C         -2.9245786391       -0.3668354226       -0.0000516175
 C         -2.6847811704        1.0159940968       -0.0000131651
 C         -1.4049366956        1.4966017860        0.0000369714
 C         -0.3032792597        0.6153304940        0.0000400008
 C          1.0257103880        1.0840074978        0.0000477191
 C          2.0778628690        0.2036758372        0.0000034990
 C          1.8350916550       -1.1870192271        0.0000294843
 C          0.5576247043       -1.6625684388        0.0000296734
 C         -0.5466958787       -0.7830809297        0.0000081415
 C         -1.8776092206       -1.2465748702       -0.0000137342
 O          3.3783510959        0.6006471391       -0.0000497068
 H         -3.9418716560       -0.7286787437       -0.0002039724
 H         -3.5219275850        1.6981844281       -0.0000297744
 H         -1.2190015558        2.5609493222        0.0001331589
 H          1.1998996398        2.1509836031        0.0000278184
 H          2.6876615526       -1.8478814814        0.0000678257
 H          0.3745955444       -2.7268384287        0.0000521758
 H         -2.0546453714       -2.3124674629       -0.0001283485
 H          3.4414626175        1.5676610993       -0.0005237863
