! pbe def2-sv(p) def2/J RI DEFGRID1 loosescf d4 GCP(DFT/SV(P)) printgap
%output
    printlevel normal
end
* xyz 0 1
C 4.0151669663 -1.9234719001 -1.0552798909
C 4.4112937263 -0.4646181285 -1.1579969493
O 3.6076761261 0.3859024902 -0.3239646963
P 2.0407881553 0.5895036538 -0.5483027223
S 1.5117127251 0.6562283445 -2.4331341615
O 1.801387557 1.9437597442 0.2236013791
C 2.5384323439 2.3853126339 1.390083828
C 2.3969418786 1.4394086958 2.5637930314
S 1.1441346969 -0.952821202 0.6204753791
C 0.0251298575 -1.7002725162 -0.6071047251
S -1.6295741406 -2.037298296 0.0457945173
P -2.3839475647 -0.0702584258 0.3316859515
S -1.2916801326 1.4256997654 -0.3418462206
O -2.7779559133 0.016504576 1.8619984664
C -1.8398234978 0.3621494308 2.8970017594
C -1.1951027008 -0.8705373782 3.5019881516
O -3.8719159424 -0.1359791203 -0.2005145639
C -4.2170781246 0.1540166349 -1.5656868801
C -3.6004990833 -0.826979556 -2.5434499587
H 3.9845613625 -2.2383693311 -0.0153197607
H 3.033096375 -2.0700914562 -1.5028268005
H 4.7380494627 -2.5272513212 -1.5944061379
H 4.3220749467 -0.1165432496 -2.1917881478
H 5.4263333521 -0.2960750768 -0.7950848113
H 3.5862434855 2.5019995613 1.1058830052
H 2.0985887705 3.3612896417 1.6023765204
H 2.8339557639 0.4715983411 2.3233953517
H 2.9139522768 1.8598287522 3.4206510445
H 1.348483295 1.2967279932 2.8135122954
H 0.417099018 -2.6727484838 -0.8944057992
H -0.0278584818 -1.0253786617 -1.4657154956
H -1.0915262834 1.0455798353 2.4786807289
H -2.4400158332 0.8962835143 3.6362075998
H -0.5333188449 -1.3545838936 2.7866361719
H -0.6166547406 -0.5779012559 4.3725178173
H -1.9646998154 -1.5758127465 3.8025723248
H -5.306554916 0.0976974737 -1.5743712642
H -3.8973190881 1.1757135591 -1.7953049639
H -4.0050681857 -0.647385767 -3.5345586676
H -2.5197322676 -0.6888889222 -2.5800089844
H -3.8180430131 -1.8489538907 -2.2432058498
*
