  25
        -39.75612734
 C         -5.1980548038       -0.3299771649        0.5569121237
 C         -3.6848488539       -0.3848003463        0.7205658032
 C         -2.9867823978       -0.3947603638       -0.6371783199
 O         -1.5714480679       -0.5579936950       -0.4962572044
 C         -0.8331463833        0.5335158889       -0.2812157989
 O         -1.3105131264        1.6552436713       -0.2244641720
 C          0.5995605665        0.2390911299       -0.1356021806
 C          1.0959552523       -1.0648514194       -0.2024872491
 C          2.4439388726       -1.3004472396       -0.0611885668
 C          3.3278692495       -0.2387407584        0.1502900513
 C          2.8346299133        1.0645349784        0.2178921390
 C          1.4842123988        1.2968607095        0.0762640181
 O          4.6366025403       -0.5253736850        0.2816305752
 H         -5.6775891759       -0.3166731156        1.5311659927
 H         -5.4886580854        0.5668685005        0.0158528978
 H         -5.5527519216       -1.1971773036        0.0062952891
 H         -3.3969257701       -1.2839051577        1.2684351859
 H         -3.3368651024        0.4834546288        1.2848314159
 H         -3.3075638567       -1.2481322419       -1.2365080317
 H         -3.1850094175        0.5392621898       -1.1730456953
 H          0.4131792306       -1.8826825949       -0.3657779405
 H          2.8451539440       -2.2998042165       -0.1099761538
 H          3.5089853646        1.8916216984        0.3809064474
 H          1.0852024405        2.2986807652        0.1258203633
 H          5.1634533287        0.2772325708        0.4247121589
  25
        -39.75608404
 C         -3.8385129078       -1.0801257066        1.3729748256
 C         -3.8672316764        0.1117365831        0.4235620517
 C         -3.0963142525       -0.1681689319       -0.8645485403
 O         -1.7080290999       -0.4079790387       -0.6071263440
 C         -0.8991924838        0.6483816471       -0.5116795943
 O         -1.2878366864        1.7967633343       -0.6548263936
 C          0.4965494379        0.2804652818       -0.2311206622
 C          1.4440578985        1.2953343254       -0.0957493460
 C          2.7624219680        0.9941347774        0.1668863741
 C          3.1596255199       -0.3366106674        0.2995157371
 C          2.2126710375       -1.3554974709        0.1642893416
 C          0.8969241753       -1.0510444824       -0.0978974324
 O          4.4331899786       -0.6903471772        0.5554359223
 H         -4.3105543231       -1.9432579370        0.9106759250
 H         -2.8122349413       -1.3396789272        1.6223736081
 H         -4.3687195362       -0.8426349542        2.2909014867
 H         -3.4289085253        0.9881885985        0.9063167742
 H         -4.8953609509        0.3529797340        0.1529794914
 H         -3.4501574110       -1.0824759646       -1.3428125785
 H         -3.1842143067        0.6803538480       -1.5506419569
 H          1.1192174561        2.3193488814       -0.2017625904
 H          3.4858843457        1.7887937150        0.2693694198
 H          2.5399494140       -2.3771923642        0.2697071481
 H          0.1665637850       -1.8365507605       -0.2045121208
 H          5.0098612474        0.0868837860        0.6299240124
  25
        -39.75602707
 C         -5.2009544228       -0.3080072413        0.5536996799
 C         -3.6884318409       -0.3730636003        0.7198229763
 C         -2.9881536228       -0.3807177867       -0.6367801725
 O         -1.5736246642       -0.5504306676       -0.4945585546
 C         -0.8308304141        0.5380310168       -0.2763663792
 O         -1.3044653969        1.6609081348       -0.2164531095
 C          0.6007555604        0.2375594205       -0.1325411148
 C          1.0902086626       -1.0668191059       -0.2026184662
 C          2.4395635696       -1.3108386497       -0.0646570737
 C          3.3274164890       -0.2551176607        0.1460720920
 C          2.8391443354        1.0521276008        0.2177028298
 C          1.4921235051        1.2920506216        0.0800193256
 O          4.6532880900       -0.4416596232        0.2857125873
 H         -5.6824099402       -0.2984332796        1.5270725924
 H         -5.4850071315        0.5943795328        0.0183274304
 H         -5.5598370244       -1.1691764449       -0.0036982379
 H         -3.4072938641       -1.2765109746        1.2640927439
 H         -3.3362013703        0.4904110890        1.2888453391
 H         -3.3117197429       -1.2302314834       -1.2401126668
 H         -3.1815687340        0.5562974283       -1.1691249447
 H          0.4026481731       -1.8809138690       -0.3658885171
 H          2.8098260764       -2.3234610900       -0.1203092313
 H          3.5382031632        1.8561209490        0.3813840015
 H          1.0987600118        2.2957110138        0.1324514269
 H          4.8885913911       -1.3812499643        0.2195305504
  25
        -39.75597956
 C         -3.8167286805       -0.0589803869        1.7849077855
 C         -3.8743107045       -0.2412294952        0.2728561887
 C         -3.0753065819        0.8335524749       -0.4608501767
 O         -1.6835858165        0.7761057459       -0.1274804253
 C         -0.9122700878       -0.0719561230       -0.8104029765
 O         -1.3378561354       -0.7760955269       -1.7119478982
 C          0.4904054952       -0.0551915197       -0.3695164603
 C          1.4023831377       -0.9106955371       -0.9921879876
 C          2.7226296456       -0.9250590666       -0.6076762936
 C          3.1627620023       -0.0789870095        0.4135371389
 C          2.2546193847        0.7773978402        1.0370303764
 C          0.9321043276        0.7888756057        0.6493886794
 O          4.4638400957       -0.1277980965        0.7561601626
 H         -4.3684093808       -0.8527368509        2.2805979815
 H         -2.7855074787       -0.0860417060        2.1292662515
 H         -4.2507726754        0.8967196622        2.0673608199
 H         -4.9063637616       -0.1866899141       -0.0740601634
 H         -3.4747512134       -1.2195620793       -0.0038855202
 H         -3.1818857980        0.7119341609       -1.5435459843
 H         -3.3906705632        1.8327096123       -0.1572873709
 H          1.0462641358       -1.5576069743       -1.7793256223
 H          3.4370225936       -1.5801798571       -1.0792187686
 H          2.5878273945        1.4346571301        1.8260558295
 H          0.2298052058        1.4515515368        1.1288583307
 H          4.6660244461        0.4958276576        1.4721922270
  25
        -39.75565447
 C         -3.6906801637       -0.3875036021        1.4413033871
 C         -3.8928169156       -0.9071556303        0.0228967481
 C         -3.0818378872       -0.1151494783       -0.9999981871
 O         -1.6788481590       -0.3262946496       -0.8006116296
 C         -0.9318542654        0.6832619467       -0.3530423166
 O         -1.3731973279        1.8012744816       -0.1404995717
 C          0.4761002913        0.3064031892       -0.1530776997
 C          1.3667174042        1.2703056232        0.3198668633
 C          2.6936646339        0.9606300242        0.5227840732
 C          3.1569876408       -0.3274834493        0.2540429713
 C          2.2671075194       -1.2953201889       -0.2195547333
 C          0.9424623233       -0.9826867135       -0.4206008275
 O          4.4423030585       -0.6868692126        0.4325885579
 H         -4.2951272281       -0.9559817229        2.1423852052
 H         -2.6465649256       -0.4764605431        1.7368665516
 H         -3.9715082760        0.6616703697        1.5071327883
 H         -4.9438448332       -0.8283386486       -0.2549029579
 H         -3.5962975074       -1.9554605757       -0.0318500395
 H         -3.2943345228       -0.4608829617       -2.0142273743
 H         -3.2895226087        0.9565968798       -0.9194242224
 H          0.9909057641        2.2617447209        0.5226137548
 H          3.3725925919        1.7157294975        0.8892355780
 H          2.6450985041       -2.2844381405       -0.4214673637
 H          0.2560613270       -1.7284514908       -0.7871256717
 H          4.9756786134        0.0541138567        0.7620793691
  25
        -39.75562645
 C         -3.7001367033       -0.2629587130        1.5134573373
 C         -3.9007274180       -0.9174619015        0.1516641725
 C         -3.0892791577       -0.2270481776       -0.9413838004
 O         -1.6872518278       -0.4154594531       -0.7133942595
 C         -0.9254807135        0.6478134646       -0.4567980300
 O         -1.3525330090        1.7913683634       -0.4436640686
 C          0.4796496748        0.2945833046       -0.2016929360
 C          0.9183118266       -1.0313817474       -0.1889019739
 C          2.2407334366       -1.3210087394        0.0561589283
 C          3.1567257356       -0.2923252770        0.2921236097
 C          2.7213911276        1.0329794233        0.2795969154
 C          1.3959868428        1.3191726517        0.0360931390
 O          4.4388055718       -0.6314314544        0.5248593333
 H         -3.9856020805        0.7863788251        1.4782099135
 H         -4.3023037067       -0.7636055069        2.2662335746
 H         -2.6555526151       -0.3198728578        1.8145661695
 H         -4.9514583699       -0.8675995746       -0.1337115007
 H         -3.6026917485       -1.9655841193        0.1986288472
 H         -3.2997473401       -0.6693605757       -1.9182056995
 H         -3.2980280865        0.8472372663       -0.9674921589
 H          0.2118540017       -1.8244207402       -0.3722720137
 H          2.5968301350       -2.3383852150        0.0712155111
 H          3.4209087533        1.8351684392        0.4601342868
 H          1.0417230031        2.3388066281        0.0233268527
 H          4.9914883490        0.1520419982        0.6760055299
  25
        -39.75554288
 C         -3.6907393028       -0.1133796598        1.5021439617
 C         -3.8950860176       -0.8767902221        0.1988612605
 C         -3.0861911533       -0.2793206278       -0.9499876730
 O         -1.6828120058       -0.4559373002       -0.7214137465
 C         -0.9314683248        0.6148178881       -0.4609500101
 O         -1.3701439990        1.7535186658       -0.4456844258
 C          0.4767526587        0.2743862857       -0.2053183599
 C          0.9360101231       -1.0421295003       -0.2421610574
 C          2.2629409607       -1.3223527547        0.0033983977
 C          3.1580487302       -0.2914390093        0.2912432411
 C          2.7000974832        1.0280056297        0.3292864768
 C          1.3754766160        1.3040121203        0.0834181904
 O          4.4629693385       -0.5138096233        0.5377776795
 H         -4.2936789242       -0.5482333504        2.2942056533
 H         -2.6460664208       -0.1477075057        1.8069115848
 H         -3.9721144620        0.9306483582        1.3809627556
 H         -4.9466178819       -0.8486777643       -0.0865663088
 H         -3.5983973256       -1.9181076711        0.3308538734
 H         -3.3031080074       -0.7974537971       -1.8869313831
 H         -3.2913977683        0.7903872986       -1.0585417619
 H          0.2437572026       -1.8376998394       -0.4656629849
 H          2.6098000856       -2.3442729075       -0.0277735220
 H          3.4041928597        1.8128561455        0.5532648368
 H          1.0056738607        2.3176550539        0.1087419179
 H          4.6775957621       -1.4592534549        0.4868761285
  25
        -39.75551547
 C         -3.7028070071        0.0413164776        1.5445646306
 C         -3.9096807882       -0.8377482159        0.3167511012
 C         -3.0948255943       -0.3532724521       -0.8795801098
 O         -1.6937250042       -0.5139686434       -0.6255039546
 C         -0.9215959795        0.5706736226       -0.5514057764
 O         -1.3397156905        1.7039295628       -0.7262251623
 C          0.4819719874        0.2515966168       -0.2474291864
 C          1.4104376622        1.2934773554       -0.1864434945
 C          2.7321756460        1.0372265817        0.0938770720
 C          3.1568107452       -0.2739871778        0.3230831199
 C          2.2316746513       -1.3168572958        0.2648557964
 C          0.9082144205       -1.0566030013       -0.0184744844
 O          4.4599412779       -0.4769391242        0.5944056585
 H         -4.3070533848       -0.3173513914        2.3729377678
 H         -2.6581585756        0.0312440308        1.8506203853
 H         -3.9816722897        1.0705230189        1.3282355883
 H         -4.9604029940       -0.8301538316        0.0271133359
 H         -3.6194925079       -1.8641450294        0.5445586406
 H         -3.3126025545       -0.9543739320       -1.7657807563
 H         -3.2933280011        0.7026277881       -1.0891937403
 H          1.0661430734        2.3005773336       -0.3654873885
 H          3.4593758547        1.8314478523        0.1420130228
 H          2.5524547744       -2.3324007381        0.4419290157
 H          0.1929032656       -1.8617321307       -0.0649828586
 H          4.6502265479       -1.4181967850        0.7370598380
  25
        -39.75549700
 C         -5.3080244383        0.1829072756        0.9215597958
 C         -3.8084806361        0.1912894869        1.1896798468
 C         -3.0211444433        0.0501466481       -0.1046707112
 O         -1.6242621677        0.0619563077        0.2116612452
 C         -0.7708676187       -0.0745412223       -0.8041338645
 O         -1.1462861998       -0.2038846738       -1.9590727087
 C          0.6383577366       -0.0531578034       -0.3893298177
 C          1.6273994822       -0.1902338880       -1.3638451376
 C          2.9604783243       -0.1754167656       -1.0171586802
 C          3.3310177275       -0.0220021642        0.3192043828
 C          2.3423218492        0.1153279901        1.2974788667
 C          1.0118771683        0.0999430760        0.9479299563
 O          4.6170119687        0.0003926429        0.7159800431
 H         -5.5827533251        1.0056413787        0.2664683698
 H         -5.6049864585       -0.7482672096        0.4458921339
 H         -5.8540697030        0.2852529117        1.8544866319
 H         -3.5400425051       -0.6321839403        1.8524336894
 H         -3.5179492627        1.1239643945        1.6745130965
 H         -3.2567829125       -0.8881724363       -0.6194442041
 H         -3.2315461274        0.8741192347       -0.7958576540
 H          1.3222647697       -0.3078469773       -2.3925962105
 H          3.7163056822       -0.2825313048       -1.7804519814
 H          2.6494831539        0.2325756260        2.3240925642
 H          0.2483774380        0.2056306500        1.7011826858
 H          5.2228235188       -0.1022649114       -0.0354870948
  25
        -39.75547089
 C         -3.9590920188       -1.2855035318        1.2768431733
 C         -3.9954132972       -0.9245956496       -0.2036168101
 C         -3.1192889962        0.2802922394       -0.5148328420
 O         -1.7488290306       -0.0900870712       -0.3190263745
 C         -0.8409777452        0.8827597967       -0.3748878554
 O         -1.1421155599        2.0484294005       -0.5820832633
 C          0.5343773845        0.4099741529       -0.1620790465
 C          0.8274482531       -0.9397388443        0.0458514045
 C          2.1278222302       -1.3440162833        0.2412334375
 C          3.1663471322       -0.4088333337        0.2335114182
 C          2.8765789334        0.9398709874        0.0250216617
 C          1.5733497394        1.3410089601       -0.1707578322
 O          4.4199633290       -0.8581695737        0.4300971526
 H         -4.3394146115       -0.4632237270        1.8783519098
 H         -4.5687022030       -2.1644437741        1.4654781320
 H         -2.9386827948       -1.4958698726        1.5870526530
 H         -5.0149686432       -0.6859825987       -0.5059719364
 H         -3.6458330002       -1.7684892211       -0.7990981341
 H         -3.2421015916        0.6093264095       -1.5525492083
 H         -3.3496628682        1.1279744658        0.1399926392
 H          0.0264805479       -1.6608652435        0.0494964819
 H          2.3727938252       -2.3812911888        0.4027568103
 H          3.6716502096        1.6701038168        0.0165673189
 H          1.3306437798        2.3801526607       -0.3337691474
 H          5.0650912707       -0.1333499698        0.4060505477
  25
        -39.75547042
 C         -3.9508569824       -1.6988060053       -0.7020705484
 C         -3.9990965557       -0.7763114686        0.5103460694
 C         -3.1242288671        0.4545204483        0.3209619361
 O         -1.7526123297        0.0397556536        0.3030212750
 C         -0.8429829282        0.9567271221       -0.0216605951
 O         -1.1434655392        2.1080140817       -0.2985215188
 C          0.5336253283        0.4416495916       -0.0111455453
 C          0.8250321574       -0.8795347885        0.3359391381
 C          2.1267434284       -1.3246099150        0.3359830935
 C          3.1683664479       -0.4597287471       -0.0106959898
 C          2.8801741599        0.8605826142       -0.3573771814
 C          1.5755471824        1.3028824989       -0.3560378631
 O          4.4233046415       -0.9466123851        0.0062522029
 H         -4.5582247739       -2.5822596314       -0.5278193641
 H         -4.3270975648       -1.1869679259       -1.5847168416
 H         -2.9278349167       -2.0116066472       -0.8952153077
 H         -3.6551683742       -1.3109429141        1.3962708172
 H         -5.0209085885       -0.4392947394        0.6840117988
 H         -3.3469825123        0.9682580645       -0.6207778676
 H         -3.2564067623        1.1714948772        1.1387045460
 H          0.0217235412       -1.5455510010        0.6055765621
 H          2.3704819956       -2.3405699829        0.6014733078
 H          3.6774453478        1.5368813096       -0.6264466141
 H          1.3340430121        2.3210767812       -0.6211309583
 H          5.0707055304       -0.2694795952       -0.2478383315
  25
        -39.75542664
 C         -5.2710266792        0.1844734419        0.9217771362
 C         -3.7649046939        0.1749771912        1.1504370680
 C         -3.0276197953       -0.2986535026       -0.0960936937
 O         -1.6201612578       -0.3191492298        0.1708022347
 C         -0.7816094177        0.0529245919       -0.7969085005
 O         -1.1581799115        0.3946490227       -1.9071075957
 C          0.6287095865        0.0086681562       -0.3845845692
 C          1.6094602424        0.3621767647       -1.3118289794
 C          2.9430186203        0.3349321035       -0.9676904261
 C          3.3226357667       -0.0486975324        0.3188649503
 C          2.3424289047       -0.4033631128        1.2498184974
 C          1.0115299834       -0.3754081563        0.9026689449
 O          4.6095036816       -0.0938033258        0.7109866674
 H         -5.5268521649        0.8463786743        0.0982698262
 H         -5.6264102585       -0.8144571806        0.6829759379
 H         -5.7817233429        0.5299600966        1.8155831291
 H         -3.5141801196       -0.4900244302        1.9776323596
 H         -3.4174982898        1.1774281923        1.4056570978
 H         -3.3300517624       -1.3158561617       -0.3657089157
 H         -3.2149676690        0.3616132545       -0.9496567267
 H          1.2976943729        0.6565542792       -2.3024923304
 H          3.6921827474        0.6104336859       -1.6944911083
 H          2.6562786799       -0.6967829346        2.2384776005
 H          0.2550001228       -0.6488838396        1.6198315814
 H          5.2090984107        0.1691645615       -0.0056818770
  25
        -39.75539675
 C         -5.3240516991       -0.8330833075        0.1258560171
 C         -3.8292639182       -1.1229474114        0.1719000284
 C         -3.0193833113        0.1528066651       -0.0064064925
 O         -1.6279638080       -0.1836606160        0.0433864343
 C         -0.7563751575        0.8131608560       -0.1204524454
 O         -1.1121517438        1.9666904914       -0.3041477015
 C          0.6454978769        0.3783085237       -0.0572732450
 C          0.9934075338       -0.9556747553        0.1558152287
 C          2.3193006404       -1.3277521743        0.2087707247
 C          3.3247303925       -0.3732213397        0.0496135047
 C          2.9783327742        0.9636121422       -0.1638733371
 C          1.6544170399        1.3316064363       -0.2160886803
 O          4.6330895320       -0.6864267006        0.0929917118
 H         -5.8865083417       -1.7530591452        0.2536002804
 H         -5.6030708426       -0.1427664577        0.9177645885
 H         -5.5968900705       -0.3890206401       -0.8280322550
 H         -3.5571432259       -1.8219663392       -0.6197454319
 H         -3.5628450949       -1.5741846422        1.1283111198
 H         -3.2303733656        0.6330492939       -0.9685699086
 H         -3.2333722129        0.8796571337        0.7852915067
 H          0.2151337393       -1.6913315571        0.2784542904
 H          2.5796709157       -2.3623484997        0.3741103540
 H          3.7670319782        1.6883223642       -0.2848114186
 H          1.3694920545        2.3595631368       -0.3801648878
 H          4.7662118107       -1.6360896956        0.2449229362
  25
        -39.75535643
 C         -3.9610734471       -0.6368067491        1.6799469389
 C         -3.9797725241        0.6074031593        0.7996053514
 C         -3.1131278993        0.4372975028       -0.4398971121
 O         -1.7419029386        0.3653247310       -0.0295953987
 C         -0.8436500352        0.0405345061       -0.9583431862
 O         -1.1543023418       -0.1903988222       -2.1167697238
 C          0.5325322786       -0.0104918031       -0.4446280094
 C          1.5643500878       -0.3673708452       -1.3160951206
 C          2.8647949381       -0.4270413865       -0.8729436656
 C          3.1641309068       -0.1285690431        0.4588709339
 C          2.1360191734        0.2298724942        1.3315975245
 C          0.8338549153        0.2881823891        0.8841708568
 O          4.4510118226       -0.2004528553        0.8475263133
 H         -4.3627277354       -1.4909563616        1.1398814727
 H         -2.9425399302       -0.8681586440        1.9811309259
 H         -4.5604828038       -0.4767865251        2.5714813316
 H         -3.6115704664        1.4653439807        1.3629214932
 H         -4.9974366222        0.8191460887        0.4720162758
 H         -3.3635310769       -0.4787208674       -0.9863298865
 H         -3.2231708773        1.2834829617       -1.1269375957
 H          1.3157752230       -0.5945748261       -2.3414953977
 H          3.6705237981       -0.7014380313       -1.5343067935
 H          2.3601716892        0.4631453503        2.3616047978
 H          0.0391800536        0.5671070927        1.5570049828
 H          4.5514400945        0.0242462958        1.7866858745
  25
        -39.75532966
 C         -3.9028833529       -0.9984057171        1.4234643382
 C         -3.9823000390       -0.9441203486       -0.0977342156
 C         -3.1136896279        0.1661381957       -0.6735103474
 O         -1.7361074746       -0.1633563274       -0.4532986071
 C         -0.8536816695        0.8345183025       -0.4253404956
 O         -1.1736747000        2.0026229744       -0.5828483383
 C          0.5245854676        0.3826977982       -0.1846758999
 C          0.8434385147       -0.9673329466       -0.0385719038
 C          2.1476782896       -1.3533574230        0.1839064765
 C          3.1601208050       -0.3966214243        0.2651145984
 C          2.8430668577        0.9563482213        0.1190648283
 C          1.5408362877        1.3378069729       -0.1037875117
 O          4.4484146670       -0.7227550574        0.4806295879
 H         -4.2517562062       -0.0635568202        1.8562455054
 H         -4.5182038660       -1.8081463099        1.8047513582
 H         -2.8761083240       -1.1622044908        1.7414447421
 H         -5.0099004485       -0.7623340653       -0.4120738344
 H         -3.6536605388       -1.8942819644       -0.5196462947
 H         -3.2675894629        0.2705289011       -1.7528381723
 H         -3.3228613100        1.1311216895       -0.1991861275
 H          0.0607562203       -1.7057261327       -0.1037534312
 H          2.3855476881       -2.4005707647        0.2949885449
 H          3.6368478326        1.6826301750        0.1846424867
 H          1.2788519166        2.3784032281       -0.2193992953
 H          4.5618546682       -1.6830967886        0.5668512818
  25
        -39.75529533
 C         -4.0083825241       -1.8187598550       -0.3931440642
 C         -4.0057426457       -0.6565074106        0.5929476226
 C         -3.1248794640        0.4894906734        0.1166983593
 O         -1.7586684749        0.0575075594        0.1485509624
 C         -0.8276819812        0.9691321137       -0.1292205463
 O         -1.1077045410        2.1248663212       -0.4081119829
 C          0.5432091900        0.4437706179       -0.0601943981
 C          0.8065364501       -0.8896533180        0.2530804233
 C          2.1053241657       -1.3472572948        0.3090428066
 C          3.1681077033       -0.4796422984        0.0544875008
 C          2.9068120915        0.8569224614       -0.2584095293
 C          1.6095740601        1.3095739663       -0.3150437646
 O          4.4534048695       -0.8775158224        0.0976638309
 H         -2.9950461249       -2.1781268643       -0.5516177141
 H         -4.6128537570       -2.6359533608       -0.0102341086
 H         -4.4160466863       -1.5040482418       -1.3507322340
 H         -3.6384159272       -0.9939691228        1.5627229626
 H         -5.0174896021       -0.2720276956        0.7212429067
 H         -3.3719239144        0.7877492171       -0.9081720523
 H         -3.2243636652        1.3711002769        0.7594805198
 H         -0.0150520410       -1.5585548992        0.4518624779
 H          2.2996861857       -2.3812042150        0.5513223406
 H          3.7390490585        1.5142007699       -0.4514103436
 H          1.3901526063        2.3385902509       -0.5554257491
 H          4.5264732935       -1.8192668342        0.3221379810
  25
        -39.75533756
 C         -3.7754102330       -1.0915000541       -1.2956460334
 C         -3.9468883694       -0.9229287537        0.2094908518
 C         -3.1167030108        0.2346326051        0.7523083669
 O         -1.7238128666       -0.0809561602        0.6300008006
 C         -0.8873340305        0.8634100586        0.2011399796
 O         -1.2465903527        1.9976941957       -0.0731401895
 C          0.5022940706        0.3933317094        0.0954082606
 C          0.8635050285       -0.9171010323        0.4082696412
 C          2.1760357460       -1.3221195954        0.2957114833
 C          3.1550567289       -0.4241965788       -0.1311129758
 C          2.7957530513        0.8892290852       -0.4442262608
 C          1.4849666423        1.2896499610       -0.3316241741
 O          4.4498738287       -0.7710960170       -0.2566792026
 H         -4.0862666993       -0.1893186761       -1.8180056333
 H         -2.7329029498       -1.2854165352       -1.5386731076
 H         -4.3744513811       -1.9240439018       -1.6531918656
 H         -3.6438785670       -1.8372861607        0.7205059507
 H         -4.9919070904       -0.7233637261        0.4460828642
 H         -3.3141166410        1.1620741945        0.2045864433
 H         -3.3203836148        0.3965071901        1.8152371830
 H          0.1067401190       -1.6097095541        0.7393649584
 H          2.4462792992       -2.3385502612        0.5394415950
 H          3.5640516711        1.5706436777       -0.7717874596
 H          1.1908053335        2.3004005285       -0.5696896566
 H          4.5933620151       -1.7005162509       -0.0155569644
  25
        -39.75528139
 C         -4.0006411875       -0.5547456112        1.8277975365
 C         -3.9640838433        0.5372262117        0.7650137244
 C         -3.1357810514        0.1240191788       -0.4442073115
 O         -1.7631224858        0.0156669224       -0.0467495523
 C         -0.8294221987        0.1446266679       -0.9871596034
 O         -1.0989133889        0.3345487293       -2.1634319430
 C          0.5396574257        0.0392728543       -0.4614839237
 C          1.6107408613        0.1584527092       -1.3473172994
 C          2.9088451084        0.0659203661       -0.8953172182
 C          3.1611404719       -0.1500495061        0.4597006436
 C          2.0901736181       -0.2695441905        1.3496148925
 C          0.7953592478       -0.1756160283        0.8947221656
 O          4.4078888372       -0.2501408406        0.9575704215
 H         -2.9914134622       -0.8015066969        2.1460668322
 H         -4.5670132218       -0.2199890988        2.6921587045
 H         -4.4672692843       -1.4538495802        1.4331561639
 H         -3.5351033520        1.4480839374        1.1847310088
 H         -4.9742383312        0.7585275840        0.4204663892
 H         -3.4571435236       -0.8494681780       -0.8298247588
 H         -3.2062216705        0.8576033409       -1.2545669110
 H          1.3973811512        0.3248768107       -2.3923457568
 H          3.7288964611        0.1605587915       -1.5910410959
 H          2.3058795429       -0.4356576941        2.3926468325
 H         -0.0304061927       -0.2665942702        1.5811162152
 H          5.0774166527       -0.1526116784        0.2615750180
  25
        -39.75518880
 C         -4.0237472746       -1.6925389057        0.8253331105
 C         -3.9854122217       -0.7888575332       -0.4014218199
 C         -3.1301719161        0.4489859368       -0.1684563788
 O         -1.7615947901        0.0439523348       -0.0361774795
 C         -0.8227532300        0.9703111088       -0.2232992288
 O         -1.0895491142        2.1329323993       -0.4858587752
 C          0.5445424727        0.4475291480       -0.0881416723
 C          0.7956542357       -0.8869716483        0.2304197668
 C          2.0911957109       -1.3419623888        0.3480184989
 C          3.1630985811       -0.4714364473        0.1473868371
 C          2.9141165084        0.8658056550       -0.1723542645
 C          1.6200388684        1.3166669949       -0.2868612447
 O          4.4456871147       -0.8674336534        0.2490728920
 H         -3.0165886145       -1.9939320794        1.1001329850
 H         -4.4694369730       -1.1702811888        1.6682819743
 H         -4.6106506708       -2.5828636286        0.6186470723
 H         -4.9927622475       -0.4580678561       -0.6543532724
 H         -3.5779766356       -1.3362341283       -1.2523825006
 H         -3.2037792413        1.1558858745       -1.0020295706
 H         -3.4247823245        0.9687334469        0.7496560928
 H         -0.0328594771       -1.5592296816        0.3835718363
 H          2.2759192196       -2.3763442486        0.5959371079
 H          3.7531503759        1.5251146771       -0.3247470578
 H          1.4102906842        2.3463715350       -0.5329041142
 H          4.5096687424       -1.8099132294        0.4732372823
