! pbe def2-sv(p) def2/J RI DEFGRID1 loosescf d4 GCP(DFT/SV(P)) printgap
%output
    printlevel normal
end
* xyz 0 1
C -2.5935547587 1.4078792021 -5.3376e-06
C -1.6080802511 0.2897329049 -3.00013e-05
C -1.8690545735 -1.0487060832 -2.60489e-05
N -0.7010197991 -1.7654625209 0.0001867485
C 0.3469799955 -0.8949464187 -7.3038e-05
C -0.1847770178 0.4195560554 -3.47305e-05
C 0.6850900871 1.5097321786 3.18141e-05
C 2.0411350493 1.2723470992 1.91677e-05
C 2.5515892225 -0.0294654687 -1.6627e-06
C 1.7173424363 -1.1264303988 -3.46722e-05
H -3.6079823354 1.0179989051 0.0005316544
H -2.4578465475 2.0351976747 0.8804215258
H -2.4585363739 2.0346168186 -0.8809613751
H -2.8177053583 -1.5500862353 7.49579e-05
H -0.6324338292 -2.768353163 -0.0009211898
H 0.2988831379 2.5184255194 -1.44169e-05
H 2.7313036903 2.1037817003 6.86864e-05
H 3.6221902378 -0.1732852618 5.98129e-05
H 2.1144464307 -2.1305706373 -1.36162e-05
*
