  13
        -19.96103547
 C         -1.8633682094        0.0062792225       -0.0001613426
 C         -1.1701100178       -1.1935859941       -0.0000906461
 C          0.2111084985       -1.2036944272       -0.0001298311
 C          0.9155554197       -0.0027899639        0.0000347984
 C          0.2205530198        1.2011515427        0.0002700601
 C         -1.1632198670        1.1998488411        0.0001196856
 O          2.2754407041       -0.0596676715       -0.0001011111
 H         -2.9422446217        0.0097687785       -0.0003992052
 H         -1.7079358013       -2.1294129857        0.0018502986
 H          0.7666133649       -2.1284465210        0.0009189614
 H          0.7604199629        2.1372332637       -0.0007315487
 H         -1.6948297016        2.1395158610       -0.0006851149
 H          2.6538301666        0.8325620529        0.0001424747
