  23
        -30.28386611
 C         -2.9446043661       -1.4586546946       -0.3068330569
 C         -1.6680611757       -0.7114793420        0.0628587810
 C         -1.9185297169        0.7872852675        0.2117610156
 C         -0.6992556325        1.5691890949        0.6989999055
 C          0.4470990650        1.6033814283       -0.3171794619
 C          1.2158276026        0.3133751393       -0.4250326430
 O          1.5740328234       -0.1891068284       -1.4723792419
 O          1.5154514592       -0.2021131222        0.7614877128
 C          2.2666164872       -1.4164766415        0.7823877334
 H         -2.7477252942       -2.5222434860       -0.4166291021
 H         -3.6997181802       -1.3253083563        0.4643648727
 H         -3.3440037893       -1.0853224847       -1.2470706526
 H         -0.9182071656       -0.8846200840       -0.7130007871
 H         -1.2749178454       -1.1061929895        1.0028166331
 H         -2.2485707099        1.1919921819       -0.7477236238
 H         -2.7291284949        0.9339729613        0.9290021145
 H         -1.0053737692        2.5979165523        0.8937788310
 H         -0.3350824951        1.1403921524        1.6332075410
 H          0.0817010172        1.8606912901       -1.3119639071
 H          1.1706453563        2.3619828386       -0.0096942955
 H          1.6625557534       -2.2333806998        0.3850820250
 H          2.5163370013       -1.5898598743        1.8243408298
 H          3.1654741206       -1.3121515286        0.1734102109
