! pbe def2-sv(p) def2/J RI DEFGRID1 loosescf d4 GCP(DFT/SV(P)) printgap
%output
    printlevel normal
end
* xyz 0 1
C 3.8038994227 -2.7246163475 -0.2399063865
C 4.3183301016 -1.3698082192 0.2058976777
O 3.2539681505 -0.4184860172 0.4002185615
P 2.4459802714 0.1794127431 -0.8320167373
S 3.4626328845 0.415086138 -2.4883306555
O 1.9566791792 1.5063990088 -0.1060224178
C 1.6376472406 2.697866011 -0.8443293938
C 0.4802682817 2.4973303446 -1.8017990418
S 0.7092119076 -1.0279438652 -0.9277934465
C 0.3937892053 -1.0859234242 0.87935534
S -1.2963439782 -1.5795764914 1.2140160903
P -2.1916508866 0.3105888679 0.7797395515
S -1.2084564144 1.8335746873 1.5282070875
O -3.7090610371 0.1050487546 1.1951887796
C -4.1549436503 -0.4823576712 2.4319585256
C -3.6056531246 0.2310919721 3.6492143168
O -2.3061641893 0.5058288708 -0.781161028
C -3.2271616927 -0.1660152682 -1.6746897285
C -2.965578281 -1.6543265751 -1.7765830075
H 4.6405532753 -3.4101468921 -0.3298239678
H 3.0923370242 -3.1244752512 0.477934137
H 3.3169640457 -2.6352560371 -1.21080262
H 5.0137343751 -0.9644509986 -0.5357292557
H 4.8047908138 -1.4206838169 1.1809203414
H 1.3910140638 3.4247974477 -0.0686065464
H 2.5326319104 3.0147897623 -1.3883595474
H 0.2623732223 3.4361329674 -2.3005585165
H 0.7409862523 1.748844566 -2.5504588751
H -0.4058623929 2.1666853376 -1.2637765033
H 0.5739108606 -0.0932859249 1.2989283761
H 1.0384236249 -1.8343525994 1.3318201526
H -5.2418364032 -0.3992990756 2.3773241237
H -3.8602339679 -1.5352093594 2.4358900749
H -2.5226897584 0.1239075292 3.6908958778
H -3.8440128304 1.2914163497 3.6083363241
H -4.0382386167 -0.2001947058 4.5461305616
H -4.2430264694 0.0344301686 -1.3299119719
H -3.0518127401 0.3342641572 -2.6283757939
H -3.5775968317 -2.0634212217 -2.5743835503
H -1.9169048333 -1.8384593941 -2.0023138813
H -3.2191208425 -2.155895933 -0.8454566335
*
