! pbe def2-sv(p) def2/J RI DEFGRID1 loosescf d4 GCP(DFT/SV(P)) printgap
%output
    printlevel normal
end
* xyz 0 1
C 5.175955264 -1.3655645996 -1.989087844
C 3.6898493809 -1.3305792018 -1.6957400283
O 3.4308576046 -0.1858902387 -0.8601893264
P 1.9379740842 0.2857591336 -0.5486014972
S 0.8740365043 0.6440156994 -2.1527677868
O 2.2076985955 1.578107998 0.2979439374
C 3.2278345386 1.7356853321 1.315064982
C 3.0103081912 0.8140564137 2.4954707384
S 1.2028031975 -1.3043469658 0.6706552481
C -0.2027138453 -1.8746959478 -0.3296572241
S -1.8118045786 -1.724485733 0.4875404223
P -2.0944938461 0.3822021944 0.4160896671
S -0.7424424027 1.5130729235 1.2698534633
O -3.5812932091 0.5241855858 0.9591823493
C -4.0993872741 -0.1120735112 2.1438942549
C -3.2500408609 0.1463058412 3.370019384
O -2.256476678 0.8292523209 -1.0850081413
C -3.2726705232 0.3648364915 -2.0081878432
C -2.7589080051 -0.7783046447 -2.8618164564
H 5.4756347096 -0.4574943173 -2.504712508
H 5.7365911963 -1.4463745062 -1.0624428292
H 5.3935370796 -2.2228630468 -2.617348282
H 3.368157572 -2.2269907067 -1.1573752364
H 3.1002455253 -1.2300053758 -2.613012401
H 4.2010602104 1.5669321623 0.8500160579
H 3.1228786614 2.783147571 1.6020178142
H 3.1713797367 -0.2234078495 2.2058401631
H 3.7089654049 1.0743504489 3.2842931226
H 1.9927475266 0.9226951579 2.8655814865
H -0.072747913 -2.9390073751 -0.5075919654
H -0.2080265035 -1.3066849968 -1.2648174466
H -5.0958616903 0.3206208884 2.2497862342
H -4.1769092882 -1.1846943942 1.946193572
H -3.7280822798 -0.2942110317 4.2389186275
H -2.263241077 -0.2973233673 3.2434355345
H -3.1258557628 1.2152708892 3.5274098352
H -4.1625571063 0.0816457664 -1.4431450838
H -3.4858775865 1.2440018051 -2.6183770986
H -2.6521939636 -1.686765665 -2.2742122554
H -3.4640130445 -0.9603002091 -3.6665416175
H -1.7941234081 -0.5106869578 -3.2885425938
*
