! pbe def2-sv(p) def2/J RI DEFGRID1 loosescf d4 GCP(DFT/SV(P)) printgap
%output
    printlevel normal
end
* xyz 0 1
C 3.6682629226 1.657465075 -0.7535750337
C 2.2700208099 1.8227572385 -0.1960685797
O 1.5420846042 0.582219018 -0.2225077469
P 1.923270164 -0.6404125982 0.734771355
S 2.7000013858 -0.1440114024 2.4537983481
O 2.8555499788 -1.6127868348 -0.096385818
C 2.4867285403 -2.0893106658 -1.4176835259
C 3.7605875482 -2.3235143319 -2.2021383774
S 0.0811880442 -1.6659464658 0.7793639284
C -0.7294522118 -0.6107357164 2.0063337574
S -1.0766149951 1.0720240805 1.4147815354
P -2.01830806 0.6117321014 -0.4319941027
S -0.9875440536 0.2534545207 -2.0652447739
O -3.0356109158 1.8238795657 -0.6180889379
C -2.6770008888 3.0294983796 -1.3103354704
C -1.7027232491 3.864634733 -0.5042588376
O -2.9843582362 -0.537639503 0.0579118502
C -3.4798774198 -1.5941656331 -0.7960242722
C -3.3275310053 -2.9183628802 -0.0753056548
H 3.6242471542 1.2819995803 -1.7730647899
H 4.1755670451 2.6169680137 -0.7444285823
H 4.2276743284 0.9536525228 -0.1367464748
H 1.667312599 2.4946724279 -0.8099046704
H 2.2997881123 2.1849714774 0.8365841822
H 1.9244956 -3.0161895453 -1.2822016876
H 1.8433819357 -1.3481799827 -1.9014469098
H 4.3055247942 -1.3919398111 -2.3273623819
H 4.3941190856 -3.0306289609 -1.6743924964
H 3.506102235 -2.723974572 -3.1781026963
H -0.0754715923 -0.4958147092 2.8718834813
H -1.6622803611 -1.1004785181 2.2743825604
H -2.2457381732 2.7568764983 -2.2798305348
H -3.6264664423 3.5453320487 -1.4585670386
H -1.4930939144 4.7901504951 -1.0306702399
H -2.1165931598 4.088676347 0.4754265571
H -0.7721525148 3.3130266117 -0.3667362235
H -4.5277265336 -1.3662852535 -1.0007272105
H -2.9148060535 -1.5852560552 -1.734313283
H -3.875926613 -2.8995092695 0.8621260057
H -3.7208413955 -3.7102767651 -0.7041230232
H -2.2772025106 -3.1137899211 0.131856733
*
