! pbe def2-sv(p) def2/J RI DEFGRID1 loosescf d4 GCP(DFT/SV(P)) printgap
%output
    printlevel normal
end
* xyz 0 1
C 4.1308548566 -0.9116507755 -1.9445105174
C 2.7500156222 -0.3759973552 -2.2524776412
O 2.2168311581 0.455826457 -1.1922600374
P 1.9757131902 0.0500570657 0.30557711
S 0.8691302357 1.3690296462 1.2413791182
O 3.4407893685 -0.066941222 0.9042782534
C 3.6664226202 -0.2535316256 2.3157670013
C 5.0686842486 0.2243726057 2.6337591964
S 1.343128029 -1.9767120707 0.3485353131
C -0.3165183368 -1.8658053972 -0.3778148801
S -1.5712570235 -1.1136357295 0.7012849013
P -2.0763784839 0.5940643415 -0.467933956
S -0.9524662561 0.9268468757 -2.0383609597
O -2.1785061847 1.8248891752 0.5018781145
C -2.5381405468 1.8018332854 1.902867878
C -3.8595745839 1.1103136648 2.1554159175
O -3.6141556703 0.3961830813 -0.8494007021
C -4.0631250267 -0.3056839078 -2.0177993797
C -3.83317212 -1.8009541963 -1.919416207
H 4.7973405776 -0.0971800349 -1.673628444
H 4.0876831742 -1.6215289316 -1.1216459552
H 4.5162616072 -1.4136750596 -2.8266574162
H 2.0462384913 -1.1912776923 -2.4382424909
H 2.7543802364 0.2992507572 -3.1097085224
H 2.913208247 0.3179429907 2.8689473584
H 3.5456582275 -1.3167994952 2.5382645728
H 5.2621203574 0.0790085074 3.691414409
H 5.7940277457 -0.3381152752 2.0534169558
H 5.1661243096 1.2794671438 2.3931087994
H -0.6093873278 -2.8964382966 -0.5613029133
H -0.2730178686 -1.2825657829 -1.3027316966
H -1.7209266162 1.3248216883 2.4514850953
H -2.574857977 2.8606422228 2.1633286893
H -4.641853855 1.56536153 1.5534301142
H -3.7867915259 0.0537824388 1.9019176138
H -4.1103667212 1.2039032079 3.2074070355
H -5.126310336 -0.0663967787 -2.0696857037
H -3.5473639884 0.1082326143 -2.8905953624
H -4.2262191147 -2.1826173328 -0.98080233
H -4.3347593971 -2.2929929268 -2.7464744353
H -2.7684632334 -2.019052328 -1.974603575
*
