! pbe def2-sv(p) def2/J RI DEFGRID1 loosescf d4 GCP(DFT/SV(P)) printgap
%output
    printlevel normal
end
* xyz 0 1
C 5.0634408897 1.2321182338 -1.6820365615
C 4.0488569013 1.7890425935 -0.7047576945
O 3.8457498159 0.8725679781 0.4001514058
P 2.6349147516 -0.1263999642 0.4976793271
S 2.7303990525 -1.1273458984 2.1725948355
O 2.7714015735 -0.9237478143 -0.8743720898
C 1.7903461975 -1.7996213207 -1.4502174999
C 1.5067922668 -3.0130935413 -0.5889936806
S 0.9033489888 1.1143499265 0.2436930609
C -0.0938021092 0.5069518928 1.6218168477
S -1.148670063 -0.9143283121 1.2069919251
P -2.2391921887 -0.0679713517 -0.4057233323
S -1.4723914311 -0.0551281923 -2.2040253148
O -2.5601906685 1.3764950224 0.1987071488
C -2.656941494 2.5470501275 -0.6315097166
C -3.9955966988 2.5984663375 -1.3389101853
O -3.5703199838 -0.9237400029 -0.4350051941
C -4.3129213627 -1.4285119444 0.6988767212
C -4.8520447402 -0.3215609222 1.5800237094
H 4.6921042935 0.3145944133 -2.1306214397
H 5.2447624805 1.9649573664 -2.462058284
H 5.9951634624 1.0169540526 -1.1662539562
H 3.0887783466 1.9795356575 -1.1927363357
H 4.4100792012 2.7058601685 -0.2354755426
H 0.8750291479 -1.2298439165 -1.6422628397
H 2.2324316176 -2.0892913283 -2.4053046343
H 2.4313201705 -3.5375231133 -0.3601534306
H 1.0351829609 -2.7201972294 0.3478798778
H 0.8363913339 -3.6779822533 -1.1245063912
H -0.7178933585 1.3325371151 1.9512220991
H 0.5667458667 0.1572281104 2.4183576406
H -2.5281362701 3.3819322658 0.0586061094
H -1.8361217501 2.5344682695 -1.3556664634
H -4.8067708031 2.6058214734 -0.6158586442
H -4.048524242 3.494924784 -1.9483253978
H -4.1014328428 1.725243029 -1.9822297865
H -5.1175796503 -2.0011973814 0.2346880563
H -3.6622791974 -2.0991927864 1.265334743
H -5.4615703002 -0.7593643455 2.3645070582
H -4.033831212 0.2320884158 2.0351341737
H -5.4606950067 0.3630182779 0.9949350846
*
