! pbe def2-sv(p) def2/J RI DEFGRID1 loosescf d4 GCP(DFT/SV(P)) printgap
%output
    printlevel normal
end
* xyz 0 1
C -0.9783797877 0.7042457544 1.97035e-05
C -0.9777153642 -0.705106538 -0.0001197474
C 0.3306507984 -1.10652484 9.08499e-05
N 1.1156146505 0.00047409 -8.87795e-05
C 0.32969497 1.1068364162 3.48363e-05
H -1.842252464 1.3401948578 0.0001400303
H -1.8408330064 -1.3417723844 0.0001886171
H 0.7503456901 -2.0926536037 0.0004341704
H 2.1215304064 0.0008969653 -9.33976e-05
H 0.7485274458 2.0932904584 0.0002587344
*
