! pbe def2-sv(p) def2/J RI DEFGRID1 loosescf d4 GCP(DFT/SV(P)) printgap
%output
    printlevel normal
end
* xyz 0 1
C 4.5910543897 0.5418540559 -2.1650942158
C 4.4711807633 1.1763426045 -0.7948494364
O 3.7098044989 0.3596659229 0.111475599
P 2.1481162254 0.1107192871 -0.0666529543
S 1.1656459519 1.7187860036 -0.6293448819
O 1.767552896 -0.4880866526 1.3482296455
C 1.7247575806 0.3403520744 2.531490829
C 0.9624760091 -0.4182407114 3.5976703272
S 2.0218206904 -1.6311209315 -1.2306388202
C 0.2407121404 -1.6539137462 -1.5622660647
S -0.7668304043 -1.9176798577 -0.0710124168
P -1.8944379153 -0.1331468634 -0.046038912
S -2.0874483027 0.7375279192 -1.7998141542
O -1.2516792494 0.6357066597 1.1789839273
C -1.9387782281 1.6599230925 1.9347673647
C -2.2450463783 2.8812124144 1.0937441043
O -3.2808726446 -0.5808120983 0.59233353
C -4.3159330998 -1.2068538114 -0.1901624487
C -5.6442002857 -0.9490951033 0.49271538
H 4.9654775202 -0.4750188457 -2.0791322261
H 3.6150768517 0.5157567572 -2.6485397761
H 5.2701341269 1.1286048064 -2.7753071935
H 3.9878707416 2.1563060615 -0.8646762168
H 5.4418480172 1.2729729701 -0.3068472317
H 2.7541892755 0.5428416909 2.8372208561
H 1.2350801309 1.2854269283 2.2725981575
H 1.456863603 -1.3637674357 3.8003631256
H 0.9287103457 0.1752014756 4.5056664527
H -0.0496455799 -0.620656015 3.2570271118
H 0.0802432504 -2.4946408679 -2.2324379458
H -0.0718751054 -0.7151593544 -2.0301883486
H -2.8510483999 1.2260394086 2.3495932323
H -1.2389273709 1.8962260753 2.7384122996
H -2.9704313771 2.6351796993 0.3195383983
H -2.6494340814 3.6657815016 1.7252253671
H -1.3383085278 3.2384148962 0.60816771
H -4.2939725428 -0.7829465028 -1.1999324676
H -4.0948835036 -2.2755297913 -0.2440688536
H -5.8475433295 0.117560924 0.5298539151
H -6.4315379146 -1.4423820212 -0.0674927689
H -5.623534088 -1.3410272674 1.5054875168
*
