! pbe def2-sv(p) def2/J RI DEFGRID1 loosescf d4 GCP(DFT/SV(P)) printgap
%output
    printlevel normal
end
* xyz 0 1
C 2.8834297594 -0.7205605833 -2.6907409255
C 1.7190134358 0.0580535056 -2.1191170651
O 1.188327559 -0.5834071289 -0.9447743927
P 1.9900076367 -0.571567278 0.4342787289
S 3.1421841422 0.9997984674 0.6930168717
O 2.7180574928 -1.9804194585 0.343937626
C 3.2181927396 -2.7463897709 1.4569144585
C 4.0986657279 -1.9386806606 2.3874442025
S 0.4721104444 -0.9532819784 1.8416108267
C -0.2418442023 0.7145187445 2.015726853
S -0.2927670729 1.6944915406 0.4899610734
P -1.8135592544 0.6843592968 -0.5897847219
S -1.8432524725 1.0637387484 -2.5099834203
O -3.1506928104 1.064832401 0.1927082469
C -3.7400578996 2.3696731131 0.0446737879
C -5.0591639753 2.3712150625 0.7900114576
O -1.6372782583 -0.8165171374 -0.1398443245
C -2.0003347372 -1.9199863059 -0.9936490555
C -3.5037203636 -2.0712664243 -1.0767936497
H 2.5855154821 -1.7455796084 -2.8942536173
H 3.2156609108 -0.2474513883 -3.6093176076
H 3.7036218031 -0.7267531821 -1.973381059
H 0.8751580674 0.1043842626 -2.8109382651
H 2.0224139638 1.0772489921 -1.8532868828
H 2.3602966539 -3.1571497507 1.9965926323
H 3.7770124259 -3.5535480351 0.9796404644
H 4.9147798672 -1.4780651077 1.835732379
H 3.5183010581 -1.1499029191 2.8640583538
H 4.5054240858 -2.5913266267 3.1531850537
H 0.372369786 1.2945256388 2.7021583858
H -1.2482226145 0.573150753 2.4033711193
H -3.0469881791 3.1136225414 0.4509744435
H -3.8786074733 2.5675585912 -1.0233499397
H -5.7248606055 1.6223504249 0.3711270779
H -4.8943475114 2.1484232565 1.8400285204
H -5.5176884087 3.3502226269 0.6980653871
H -1.56862021 -1.7527033535 -1.9853903976
H -1.5243466648 -2.781321905 -0.5225683983
H -3.92655351 -2.1682201642 -0.080587827
H -3.9328014057 -1.1941470468 -1.5599724534
H -3.7461663495 -2.9522921589 -1.6625158825
*
