! pbe def2-sv(p) def2/J RI DEFGRID1 loosescf d4 GCP(DFT/SV(P)) printgap
%output
    printlevel normal
end
* xyz 0 1
C 5.2699576453 -2.0533640619 -1.4083461816
C 4.5570374744 -0.7345029892 -1.1548245753
O 3.1282638334 -0.8909605496 -1.249415361
C 2.4729909483 -1.3049481568 -0.1811616851
O 2.9854027856 -1.5635723008 0.8831915775
C 0.9846851838 -1.431629281 -0.4587253461
C 0.4245984408 -0.1201652447 -1.0104026624
H 0.9553964198 0.1482591141 -1.9283316607
C 0.5613775907 1.0122564225 -0.0121265143
O -0.3908117493 1.6477328959 0.3941148901
O 1.8029051575 1.2020509448 0.3454492555
C 2.0841431848 2.2284242365 1.32310407
C 2.244844657 3.583305523 0.6548440667
S -1.3253295102 -0.2597863605 -1.4867640163
P -2.3499256449 -0.0061838714 0.3643530083
S -1.5211753155 -0.6024534354 2.039805517
O -3.0371329312 1.4141827803 0.437993898
C -3.8187809243 1.9556410533 -0.6442995148
O -3.6592297764 -0.8800049248 0.0187359638
C -3.6107989827 -2.3055497788 -0.0650049579
H 4.9784020138 -2.4577875917 -2.3736211674
H 6.3424343636 -1.8894951708 -1.3977753224
H 5.0154920225 -2.7703722796 -0.6311285612
H 4.8008055809 0.0024072103 -1.9199399264
H 4.7988983676 -0.3491927814 -0.1605774589
H 0.4843459047 -1.7104473624 0.4713138017
H 0.8350922266 -2.2159861465 -1.2022649873
H 1.2695592121 2.2414201694 2.0528341793
H 3.0079587395 1.8977041589 1.7981701373
H 1.3073089944 3.8876188935 0.1951189697
H 2.5221779822 4.3165287456 1.4048168727
H 3.0186197216 3.5376449015 -0.1062163649
H -3.212967548 2.014468285 -1.5485106861
H -4.1081472575 2.948825271 -0.3108219588
H -4.6937778166 1.3319119361 -0.8183930198
H -3.0726848858 -2.7130484133 0.7928131845
H -3.1213263908 -2.6058266666 -0.9913109533
H -4.6462056118 -2.63625653 -0.0537003259
*
