! pbe def2-sv(p) def2/J RI DEFGRID1 loosescf d4 GCP(DFT/SV(P)) printgap
%output
    printlevel normal
end
* xyz 0 1
C 3.6798231563 -2.6238906287 -1.5051865437
C 4.1196226046 -1.2335989605 -1.9075739344
O 4.0110621316 -0.2707071168 -0.8298268067
P 2.7406903441 0.0379719851 0.0402483522
S 2.8842389141 1.7761717198 0.9287213096
O 2.6693163632 -1.2284045346 1.000820033
C 1.7857495335 -1.3151825045 2.1350274885
C 2.5168239021 -0.9383429385 3.4089967778
S 1.083365154 -0.1583503382 -1.307340721
C 0.0755897448 1.2193384102 -0.7121962205
S -1.0034157289 0.76881058 0.6695818818
P -2.791059116 0.3128288833 -0.4230925876
S -2.6653723919 0.3333805801 -2.3724649823
O -3.8488842798 1.3523066402 0.1081609095
C -4.1087815019 1.5682936011 1.5207482689
C -3.6728758462 2.9654632674 1.9137352008
O -3.328334219 -1.0388727531 0.2256710865
C -2.9367861693 -2.3426290542 -0.2387631994
C -1.5013774441 -2.6717821963 0.1186604853
H 4.213321091 -2.9449202733 -0.6146323178
H 2.6107872242 -2.6349189208 -1.3027958592
H 3.8906581244 -3.3101730054 -2.3196152161
H 3.5276219347 -0.8660396931 -2.7496468855
H 5.1808070375 -1.2018135826 -2.1592991636
H 0.9198876788 -0.6643739309 1.9814656613
H 1.4642987115 -2.3584323815 2.1558380974
H 2.8285954896 0.1030252576 3.3672569098
H 1.8540377547 -1.0752703604 4.2571429844
H 3.3973310693 -1.5623548802 3.5332618998
H -0.5379372863 1.5442857242 -1.5521373556
H 0.7372115514 2.0112547677 -0.3572176496
H -5.1860122652 1.4397444145 1.6353011476
H -3.5837004798 0.8082472024 2.1032329389
H -2.59437676 3.0692632469 1.8207851585
H -4.1530132736 3.6985929908 1.271566841
H -3.9582302398 3.1499069226 2.9444681583
H -3.6383342002 -3.0147926333 0.2577873944
H -3.0856049721 -2.3838105157 -1.3222441487
H -1.3050427219 -3.7121668086 -0.1195388006
H -0.8189368534 -2.047922098 -0.4567286556
H -1.3305662349 -2.5051382511 1.1794223693
*
