! pbe def2-sv(p) def2/J RI DEFGRID1 loosescf d4 GCP(DFT/SV(P)) printgap
%output
    printlevel normal
end
* xyz 0 1
C 2.8084217774 -0.4386106157 -2.7388707283
C 1.6260780234 0.2519382292 -2.0948320607
O 1.1386242778 -0.4730955518 -0.9479156132
P 1.99935976 -0.5616618997 0.3906620483
S 3.1357765648 0.985565948 0.8069771467
O 2.7938338948 -1.917470996 0.1536384123
C 3.9560606178 -2.2761893715 0.9220169339
C 3.6095805625 -2.6053498129 2.3596975839
S 0.5181249283 -1.1479506691 1.7612442227
C -0.2405765647 0.4690078607 2.1389513572
S -0.3427725427 1.6111497133 0.7357001443
P -1.879017308 0.6920770195 -0.4084149907
S -1.9149434025 1.2477122606 -2.2847544437
O -3.1916047142 0.9618352319 0.4589802874
C -3.7587815201 2.2785286445 0.5854051339
C -4.8272549065 2.5141527568 -0.4646894135
O -1.6886828605 -0.8456614396 -0.1171959749
C -1.9693257401 -1.8578490507 -1.102575366
C -3.4613109333 -2.0658240684 -1.2480589051
H 3.0657088246 0.0791378522 -3.657528234
H 3.6640244503 -0.4128524613 -2.0650505831
H 2.5628667388 -1.4738898385 -2.9605160304
H 0.7668060962 0.3031494019 -2.7669761918
H 1.8917035402 1.2658148362 -1.7747731715
H 4.3608471788 -3.1413534539 0.3953162769
H 4.6679248978 -1.4454179056 0.8795931533
H 2.8199009559 -3.3514572556 2.3970150581
H 4.4922578621 -2.9865261613 2.863076609
H 3.2686049651 -1.7082326719 2.8744894608
H 0.3688619931 0.9829205206 2.8798658404
H -1.2364069492 0.2560586172 2.5211177316
H -4.1817396587 2.3028566764 1.5915950112
H -2.9596034946 3.0237060181 0.5071614739
H -5.5966367749 1.7507286004 -0.3911580847
H -5.2735582078 3.4908479971 -0.3081208071
H -4.3920408761 2.4796015357 -1.4610838109
H -1.5224725279 -1.5570375423 -2.0553761715
H -1.4629892121 -2.7454061753 -0.7201166141
H -3.9197241644 -1.1549123952 -1.6315443584
H -3.6477029247 -2.8773914829 -1.9440760544
H -3.9022570345 -2.3036908845 -0.2840009712
*
