! pbe def2-sv(p) def2/J RI DEFGRID1 loosescf d4 GCP(DFT/SV(P)) printgap
%output
    printlevel normal
end
* xyz 0 1
C 5.1424692492 1.3490127353 -0.4387860992
C 4.8031852508 -0.1224939222 -0.5653751719
O 3.567187052 -0.4406372056 0.1007453634
P 2.1476498381 -0.0313606106 -0.5137477366
S 2.0840991249 0.0787511082 -2.4594851572
O 1.7456517843 1.3342640479 0.1881478355
C 1.7559912824 1.495450091 1.6270803472
C 2.2079252188 2.9059858425 1.9444898752
S 1.0635993381 -1.5745005176 0.4476484963
C -0.0607004667 -2.0699802289 -0.9027730586
S -1.7878347331 -2.0932428853 -0.384162544
P -1.9749702553 -0.0201670604 0.0741359957
S -1.1485884533 1.2047208771 -1.2101397228
O -1.4192253866 0.1767968974 1.5340958456
C -1.8982831837 -0.5872596155 2.6747316137
C -2.9150895582 0.2141545017 3.4597938278
O -3.5406446105 0.1382051622 0.2695454936
C -4.4435132771 0.0725834329 -0.8546694752
C -5.7853831773 0.6115660949 -0.4025687753
H 6.0879401051 1.5448732977 -0.9347095642
H 4.3635672107 1.9463457539 -0.9135641375
H 5.2202260927 1.631266027 0.6081791425
H 5.5410434669 -0.7552787557 -0.070355796
H 4.7129622937 -0.4073667233 -1.6182562299
H 0.7337720458 1.3205737227 1.9723883482
H 2.423284328 0.7463012801 2.0637693235
H 2.1646139093 3.0595549339 3.0179552618
H 3.2246041695 3.0674962654 1.5968621667
H 1.5537170746 3.6189765165 1.4501466702
H 0.1822904833 -3.0874380096 -1.1983528643
H 0.0699190587 -1.3749810337 -1.737101115
H -2.3239336697 -1.5277683222 2.3153385302
H -1.0015345146 -0.7922765742 3.2625623854
H -3.787845312 0.4169917274 2.8451208649
H -3.2151994634 -0.3559158129 4.3333641411
H -2.483997069 1.1590989159 3.7785047624
H -4.0238286348 0.6675398119 -1.672350858
H -4.5162171709 -0.9710701981 -1.1716531233
H -6.1677283827 0.0147735418 0.4202631779
H -5.6829448702 1.6424927407 -0.0756309541
H -6.48318386 0.5675935274 -1.2321910849
*
