! pbe def2-sv(p) def2/J RI DEFGRID1 loosescf d4 GCP(DFT/SV(P)) printgap
%output
    printlevel normal
end
* xyz 0 1
C 2.7951399715 -0.6167034976 -2.9109263057
C 3.5697264958 -0.8743676367 -1.6340382787
O 2.6668745032 -1.1594818417 -0.5399575761
P 2.2404487136 -0.0524494346 0.5064803461
S 1.9322990637 1.7741520853 -0.1680519752
O 3.4487839381 -0.1082292347 1.5422923757
C 3.6557072992 0.9080460303 2.536629394
C 2.557436459 0.8957520447 3.5798651246
S 0.6805789819 -1.0915334501 1.4774002779
C -0.1781477303 -1.7973747969 0.0355390996
S -0.5005788809 -0.6126367679 -1.3026072692
P -2.3502771523 0.1565578814 -0.5804259905
S -3.1253801721 1.607951787 -1.639786961
O -2.0939070822 0.4559605133 0.9537376759
C -1.5472775285 1.7091386624 1.4042859721
C -1.5888948354 1.6986444929 2.9182381399
O -3.256060295 -1.124885644 -0.3500782865
C -4.1707867146 -1.5830174473 -1.3619291671
C -3.4479960839 -2.2019623644 -2.5420014038
H 2.1414111387 -1.4556356287 -3.1322552946
H 2.1830816663 0.2770397087 -2.8070076736
H 3.4925203153 -0.4746930514 -3.730156019
H 4.1929080125 -0.0146322637 -1.3734586357
H 4.1916255135 -1.7672358428 -1.7150655875
H 4.6287136231 0.6652830691 2.9651933958
H 3.6999619223 1.8804334811 2.0347802418
H 2.7845305087 1.6189917438 4.3562633861
H 1.6090247329 1.1628416287 3.1133648016
H 2.4644678962 -0.0938445782 4.0197431985
H -1.1218208986 -2.1868834678 0.4131245017
H 0.4390020982 -2.5829093328 -0.3918623312
H -0.5217486795 1.8122679135 1.0321730508
H -2.1455892225 2.5238239157 0.9839023952
H -1.0213871134 0.8514332038 3.2949576692
H -1.1587995827 2.6218197045 3.2925057302
H -2.6163293496 1.6129236952 3.2590253506
H -4.7944204213 -2.3111315383 -0.8414011798
H -4.7815783148 -0.7355071648 -1.6883779273
H -2.8491434332 -1.4447063238 -3.0474871062
H -2.7952565086 -3.0059082077 -2.2119897461
H -4.1779382512 -2.5965439819 -3.2415387825
*
