! wb97x-v def2-tzvp def2/J RIJCOSX DEFGRID2 scfconv7 GCP(DFT/TZ) printgap
%output
    printlevel normal
end
%cpcm
    smd true
    smdsolvent "water"
end
* xyz 0 1
C 5.151075501087525 -2.330678686589868 -1.720736773452385
C 4.443364878064059 -1.0492309862580178 -1.3663905554676385
O 3.322866441806539 -1.4051771395734132 -0.4830864606350718
P 2.3023057851413045 -0.2746048364118627 0.04528185940905521
S 3.0720430636662877 1.3938188165632734 0.6892393488695547
O 1.4291536648046783 -1.1288824750732627 1.0845567420002036
C 1.7400944284371822 -1.1627989795110008 2.5223408485562646
C 2.9622766533372378 -1.9982632660327477 2.8123595759449973
S 0.992733698016901 -0.12465208427557764 -1.6147430802488774
C 0.176514402767521 1.481632900782851 -1.265945820274599
S -0.925796492127368 1.553888107174666 0.19774126181419463
P -2.543533850565318 0.33075814862324543 -0.44827099355342775
S -2.988738496602851 0.45208166463347926 -2.335586242364873
O -3.6571472657337876 0.7453264870232709 0.636369468743362
C -4.394025542889137 2.013147326184557 0.5208695185386673
C -5.317386973710834 2.0968860946459777 1.707270133435798
O -2.2337132766271317 -1.1810633155659136 -0.016191939686427775
C -1.97914300945974 -1.547788157130012 1.389798041765439
C -1.4668222551061665 -2.963828706588478 1.3931353161005506
H 5.528317921148479 -2.8282018633893093 -0.822800620489098
H 4.484385964679666 -3.01299219442441 -2.2552818098913083
H 6.000929757778236 -2.098066987270828 -2.369442111112997
H 4.042940731462464 -0.5477662947786718 -2.2538006311822123
H 5.0953927383138 -0.35806819207750346 -0.8244593838798356
H 1.8509580772667358 -0.1320900236957064 2.872959201445775
H 0.8409113842557514 -1.596366960139289 2.9650387497470945
H 2.8530616509264157 -3.006239819803321 2.4017637448144846
H 3.8701138195328344 -1.5426747720754246 2.4055592959107805
H 3.0796306014425654 -2.0785631950526455 3.8981840276011535
H -0.39569054570187606 1.7229504223002603 -2.1666283312024204
H 0.9386970847496846 2.2481318891505997 -1.0984943864431034
H -3.672185064667257 2.8361423499002183 0.5094995467610508
H -4.942394368693312 1.9992341899088653 -0.4255964924665155
H -6.026935758043912 1.2648953422320417 1.7092586738925954
H -4.753287573765448 2.0903928052952803 2.64400794618183
H -5.88187273855759 3.032543914988245 1.6501653408433976
H -1.2463698478804366 -0.8481229008240893 1.8057615221725962
H -2.9220286377615237 -1.453925947045068 1.9352043519443003
H -0.5328202757876832 -3.04611041210844 0.83082298867673
H -1.2788635844836986 -3.2693104043814167 2.427060471435195
H -2.2056494524067563 -3.64589532130809 0.9628264502911293
*
