! pbe def2-sv(p) def2/J RI DEFGRID1 loosescf d4 GCP(DFT/SV(P)) printgap
%output
    printlevel normal
end
* xyz 0 1
C 3.0030273456 -4.0151810191 0.2514839969
C 2.7030776163 -2.5729905321 0.6073605872
O 2.2584437959 -1.9041732747 -0.5885560528
C 2.079834301 -0.6058061346 -0.548041712
O 2.2519758018 0.0894083215 0.4343652096
C 1.6652246206 -0.0399061909 -1.8932950296
C 0.4421443055 0.8709285688 -1.7519981382
H 0.3735805205 1.5353869322 -2.6161372331
C 0.5156212291 1.7069977095 -0.4887416693
O -0.2744354578 1.565791054 0.4294243664
O 1.4586849691 2.5978033044 -0.5438122804
C 1.6881918685 3.4343697879 0.6113501277
C 0.7526890304 4.6315985654 0.6127808654
S -1.1294594471 -0.058256376 -1.7469188033
P -1.6856644119 -0.398235261 0.2715648455
S -0.4979727239 -1.150249613 1.6504573805
O -2.7546903348 0.697396793 0.7044724244
C -2.6561712422 1.5253451756 1.8631712175
O -2.8181183242 -1.4857776107 -0.099217695
C -2.4831308879 -2.8183818752 -0.4875587777
H 2.108272329 -4.4951704316 -0.1329566705
H 3.7808338392 -4.0591381055 -0.5049883633
H 3.3350394409 -4.5392613644 1.141210196
H 3.5865462172 -2.0488295805 0.984944038
H 1.909772978 -2.4905656241 1.358191552
H 1.4547241324 -0.8509847227 -2.588282495
H 2.5030144489 0.5560066003 -2.2619056081
H 1.5591329121 2.8218655642 1.5077074243
H 2.7294421307 3.7397703475 0.51169514
H 0.8668457544 5.1968220652 -0.3079294329
H -0.2805756884 4.3044248282 0.7035765418
H 0.9930499133 5.2691258661 1.4568967129
H -2.4508176372 2.5470808752 1.5482912044
H -1.8574395389 1.1747381565 2.5192578216
H -3.6164136922 1.4635105676 2.3715530178
H -2.107548524 -2.8308724152 -1.5111386391
H -3.4070170159 -3.3864418278 -0.4132167799
H -1.7312288881 -3.2265183348 0.1918346804
*
