! pbe def2-sv(p) def2/J RI DEFGRID1 loosescf d4 GCP(DFT/SV(P)) printgap
%output
    printlevel normal
end
* xyz 0 1
C 4.6108355031 -1.6933751604 -0.6445107047
C 4.6423714528 -0.2099518438 -0.3391748215
O 3.5006182919 0.2072537728 0.4286109356
P 2.0359368811 0.2804642703 -0.1896702538
S 2.0013975143 0.8363195117 -2.0752500996
O 1.2921761803 1.1247764996 0.9246331328
C 1.7369496525 2.3932447086 1.4476241194
C 1.9188459588 3.4374639938 0.366385034
S 1.1961593926 -1.6107544564 0.1985550507
C -0.029395123 -1.72366094 -1.1498620358
S -1.7234874725 -1.8823655084 -0.5464218921
P -1.9785190824 0.0777658472 0.238918541
S -1.3159385667 1.556647868 -0.8599388673
O -1.3344396316 0.0769098251 1.6779167772
C -1.3600283431 -1.0040404901 2.6442872597
C -2.7600583871 -1.4754362804 2.9700217337
O -3.5349076385 0.1576375595 0.5525989916
C -4.5027520116 0.5911260611 -0.4172652636
C -4.649731589 -0.3882293558 -1.5640448101
H 5.5491436291 -1.9836859554 -1.1059291404
H 4.4631273401 -2.2644741432 0.2684642526
H 3.7964124518 -1.9129410693 -1.3331510048
H 4.6665252312 0.3720811252 -1.2661754044
H 5.4923291338 0.0553922277 0.2909790452
H 0.9386153834 2.672648261 2.1379811456
H 2.66751926 2.2258729085 1.9952838121
H 1.0073738605 3.5275879079 -0.222759815
H 2.1491102619 4.3956050723 0.8212624832
H 2.7320499874 3.1533459772 -0.3007711513
H 0.1727836741 -2.6296813371 -1.7150204645
H 0.067184582 -0.8349182434 -1.7803892435
H -0.7502161505 -1.8251031326 2.2558268939
H -0.8680621061 -0.5653030904 3.5137381402
H -3.3784684536 -0.6371137512 3.2797474752
H -3.2131498682 -1.9452544741 2.0997359192
H -2.7062083986 -2.2009957224 3.7758976663
H -5.4250078318 0.6776241362 0.1589723238
H -4.2027643277 1.575965461 -0.7895367678
H -3.7445905325 -0.3927024457 -2.1692614701
H -4.8248359913 -1.3921465028 -1.1860496836
H -5.4852345308 -0.0857244678 -2.1871412238
*
