! pbe def2-sv(p) def2/J RI DEFGRID1 loosescf d4 GCP(DFT/SV(P)) printgap
%output
    printlevel normal
end
* xyz 0 1
C 3.4450818809 2.2205190482 -0.6011800614
C 2.070090227 2.2387261004 0.0315800211
O 1.4525689675 0.9364093665 0.012709579
P 1.9747908554 -0.2625559676 0.9074471271
S 2.5974167335 0.2212228592 2.6989742154
O 3.0640974507 -0.9437496856 -0.0371388056
C 4.0673188731 -1.8307319219 0.4857331629
C 3.4824094885 -3.1619429461 0.9135314328
S 0.2756370501 -1.5205933663 0.8077924212
C 0.2169917553 -1.8631079808 -0.9755302193
S -0.2289304703 -0.4322545622 -2.0045592822
P -1.9903785333 0.1297662159 -0.9937964011
S -3.1489861502 -1.2869035142 -0.2873192996
O -2.5655114256 0.9936722069 -2.1909640655
C -3.9763959578 1.2290177344 -2.3739167871
C -4.5557797033 2.1000088689 -1.2786678974
O -1.5693364968 1.2498982825 0.0636973367
C -1.6614361771 1.1407461753 1.4904085027
C -2.3603061208 2.3673786603 2.0426561212
H 3.3942511754 1.7782797403 -1.592874848
H 3.8187179342 3.2369816674 -0.676154858
H 4.1286153474 1.6366589333 0.0134577705
H 1.3722039508 2.8622656335 -0.5297144304
H 2.1243842505 2.5796039712 1.070855973
H 4.7757433325 -1.9442228163 -0.3358926712
H 4.5540837705 -1.3398694585 1.3345253251
H 2.7719958733 -3.0106006793 1.7262077091
H 2.9707792067 -3.6442183337 0.0846014077
H 4.2813782398 -3.8080484718 1.2630097962
H -0.5374051543 -2.6407500398 -1.0856782394
H 1.1898265349 -2.1996316212 -1.3245462199
H -4.0340202051 1.7119217741 -3.3503536876
H -4.4866322809 0.2613891861 -2.4056041311
H -3.9797073051 3.016797419 -1.1822008964
H -5.5863577466 2.3428935886 -1.5181495049
H -4.531456353 1.5610895296 -0.3320635893
H -2.2024183941 0.2221109108 1.7449015322
H -0.6406358114 1.0665472231 1.8805061596
H -2.3403560854 2.3228222774 3.1268283102
H -1.8485871177 3.2663179968 1.7109722999
H -3.3924924615 2.4018596935 1.7055172628
*
