! pbe def2-sv(p) def2/J RI DEFGRID1 loosescf d4 GCP(DFT/SV(P)) printgap
%output
    printlevel normal
end
* xyz 0 1
C 4.3945755466 -1.5834547525 -0.7829910306
C 4.578674157 -0.0805134892 -0.7363019567
O 3.534452274 0.5825122723 -0.0020997788
P 2.0199089112 0.6079171084 -0.496286838
S 1.8096529743 0.7515687229 -2.4383558654
O 1.4598489501 1.8545881502 0.2943110363
C 1.9371196894 2.3192188406 1.5802015592
C 1.7696539077 1.2821778172 2.6701888459
S 1.1827598211 -1.1401580847 0.3838781308
C 0.077318601 -1.7057751704 -0.9453127826
S -1.6258735489 -1.938821472 -0.3918075175
P -2.041162463 0.0615109348 0.1976717801
S -1.4203545146 1.4488220842 -1.0412486576
O -1.4504783245 0.2679358175 1.6472811159
C -1.9637771599 -0.3426032193 2.8634042846
C -1.3618358024 -1.7120065561 3.1081108767
O -3.604502739 0.0450502446 0.4839822067
C -4.5883220227 0.2822682978 -0.5383053555
C -4.6431119816 -0.8369132241 -1.5576587627
H 4.2487184285 -1.9815993909 0.2177765059
H 3.5277204504 -1.8305276365 -1.3938840538
H 5.2756693014 -2.0350575399 -1.2273275241
H 4.601827579 0.3332568766 -1.7491601496
H 5.4864075161 0.1982195509 -0.1990610524
H 2.9836423622 2.6106073609 1.4691649583
H 1.3214239733 3.2013710359 1.7646760772
H 2.4037722859 0.4198718729 2.4705624416
H 2.0511070233 1.7195585401 3.6229418406
H 0.7339416114 0.9559788771 2.7133261271
H 0.4138488161 -2.6819989114 -1.2851833669
H 0.1134895412 -0.9719312993 -1.7558633372
H -1.6720169384 0.3642029525 3.6425258344
H -3.0513322749 -0.38908448 2.7975444273
H -0.2781521076 -1.6681798227 3.0311941828
H -1.6364600927 -2.0384646107 4.1062423313
H -1.7327945721 -2.4336238144 2.3853701017
H -5.522815127 0.3655157494 0.018714666
H -4.3575335466 1.2355497189 -1.0239020105
H -4.7359534238 -1.7987395283 -1.0598187474
H -5.4966549108 -0.6832008863 -2.2101260785
H -3.7365735633 -0.8384562823 -2.1605705495
*
