! pbe def2-sv(p) def2/J RI DEFGRID1 loosescf d4 GCP(DFT/SV(P)) printgap
%output
    printlevel normal
end
* xyz 0 1
C 1.7639235219 -3.8049807888 0.1768402795
C 1.310307773 -2.3838384433 0.4458478207
O 2.4086597862 -1.5034308504 0.1613506564
P 2.2699402658 -0.0367066169 -0.4437505791
S 0.9268495885 0.1310107962 -1.8598607914
O 3.7170352086 0.2443055301 -0.9814886704
C 4.8767495622 0.6062913997 -0.1895699516
C 5.1959464164 -0.415258274 0.8792959537
S 2.0521055906 1.2921437899 1.2106509359
C 0.2883392868 1.6310561842 1.0971968913
S -0.7320671374 0.1952610516 1.5926204741
P -2.1752790165 0.2014288977 0.0507853733
S -2.2927815779 1.8175914632 -1.0606046152
O -3.4969952022 -0.251470757 0.8111942343
C -4.0489900621 0.3577849333 1.9917698323
C -4.2660442319 1.8497684697 1.8449841716
O -1.8528533602 -1.1436438067 -0.7243030395
C -2.230082726 -1.3472636224 -2.0974436506
C -3.7307798639 -1.4776984049 -2.2430502602
H 2.0417398647 -3.9161204536 -0.867953726
H 2.6220935705 -4.0439600032 0.797874203
H 0.951435616 -4.4864891465 0.4066050006
H 1.0310259034 -2.2457135802 1.4941912145
H 0.4585241861 -2.1141754746 -0.1884603219
H 5.6704614284 0.6746213253 -0.9349942146
H 4.6938618306 1.5892717193 0.2513614466
H 5.3045409852 -1.4017199613 0.4366897028
H 6.1235747746 -0.1358484872 1.3691291199
H 4.3997974484 -0.4443807434 1.6201687467
H 0.0186064817 1.9096954646 0.0747665441
H 0.098913052 2.4458652141 1.7914664669
H -4.994283378 -0.169737822 2.1315032841
H -3.3789756994 0.1443434196 2.8294975517
H -4.7610360125 2.2300023868 2.7327548872
H -3.3118885879 2.3604140463 1.7229635892
H -4.8789425397 2.0612427072 0.9720655738
H -1.843819364 -0.512312342 -2.6922964791
H -1.7084943172 -2.2619228719 -2.3826513693
H -4.1003203305 -2.2755423886 -1.6044676665
H -4.2080197366 -0.5427964566 -1.9505330468
H -3.976125904 -1.6931147298 -3.2781188072
*
