! pbe def2-sv(p) def2/J RI DEFGRID1 loosescf d4 GCP(DFT/SV(P)) printgap
%output
    printlevel normal
end
* xyz 0 1
C 3.9101899006 -1.9174487571 -2.3520138755
C 4.0198437028 -0.4113854556 -2.2332449546
O 3.4746594761 0.0857318532 -0.9961750949
P 1.927603322 0.0035801485 -0.6396406164
S 0.7041216371 0.3469922898 -2.1236690827
O 1.8075970454 1.0618360199 0.5230102187
C 2.7047094611 1.1179317573 1.664679736
C 1.9878388716 0.6682773857 2.9217790657
S 1.7108286841 -1.9015497246 0.2686437809
C -0.0951297783 -1.963354355 0.2159127316
S -0.9017050345 -0.9712249954 1.5215837542
P -1.8345104561 0.633677354 0.5267763211
S -1.0198062292 2.3910410793 0.2548945017
O -3.1206612548 0.8808766161 1.4300729319
C -4.0471372127 -0.1637000093 1.8149225524
C -3.8919568249 -0.4897796482 3.2870323098
O -2.3346085068 -0.1482758063 -0.7763545738
C -2.8277703946 0.5515114229 -1.9366019616
C -2.7964358892 -0.4083780949 -3.1071912218
H 4.3184769749 -2.3989599582 -1.4670828
H 2.8673447424 -2.2087406026 -2.4634625247
H 4.4615247718 -2.2445383516 -3.2277187281
H 3.4982465837 0.0800384796 -3.0602088846
H 5.0596911596 -0.0825500776 -2.2037346104
H 3.5826978318 0.5028422989 1.4584734821
H 2.9951741183 2.1677171444 1.7296981313
H 1.7465971175 -0.3912714131 2.8768252537
H 2.629989864 0.851162172 3.7773202743
H 1.064992743 1.2321693614 3.0413661431
H -0.3724290557 -2.9975963824 0.3998283319
H -0.4413717871 -1.6187090014 -0.7584453931
H -5.0357154514 0.2492546738 1.6055675296
H -3.8767149445 -1.0445554023 1.1905019794
H -4.017415484 0.4119476852 3.8797579702
H -4.6476705841 -1.2151263214 3.5710221454
H -2.905438084 -0.9035526596 3.482912351
H -3.8427868426 0.8951764272 -1.7192886771
H -2.1887886514 1.4226299245 -2.1166378178
H -3.3644065404 -1.3034578033 -2.8710543801
H -3.2299258088 0.0789321476 -3.9739994618
H -1.7681029753 -0.6810814353 -3.3312395718
*
