! pbe def2-sv(p) def2/J RI DEFGRID1 loosescf d4 GCP(DFT/SV(P)) printgap
%output
    printlevel normal
end
* xyz 0 1
C 5.3614071582 -0.094941805 -1.2466173443
C 4.4982752592 -0.6514188841 -0.1315509525
O 3.4953654464 0.2974818195 0.282382278
P 2.0537260159 0.3947418206 -0.3847122612
S 1.9794245753 0.7877899935 -2.2978777344
O 1.3831312299 1.5097266611 0.4992939561
C 1.4366774499 1.5144302071 1.9475741445
C 2.4999474154 2.4749419042 2.4371899589
S 1.2318383133 -1.4913363456 0.1798057835
C 0.1139535733 -1.80602438 -1.2190078102
S -1.6016910905 -2.0368784633 -0.7059521011
P -1.9666393461 -0.0606169126 -0.0035496607
S -1.3918763447 1.3835103306 -1.1935944935
O -1.3154554996 0.0386041085 1.4263669512
C -1.6306773839 -0.8846363801 2.5050671446
C -2.6454290856 -0.2726198771 3.4471121807
O -3.5191725375 -0.1079810133 0.3191421026
C -4.4989546037 -0.1502037964 -0.7392073995
C -5.8461171309 0.1952447405 -0.138169932
H 6.1372190656 -0.8136576745 -1.4897831176
H 4.7591419258 0.0926774075 -2.1327607173
H 5.8206654512 0.8391604014 -0.935434999
H 5.0850061283 -0.831843849 0.7712343309
H 4.0085423928 -1.5791606377 -0.4394094029
H 0.4372968885 1.8289466605 2.2547826181
H 1.6275515799 0.4958683263 2.2970055111
H 2.4735897464 2.5096561076 3.5218313569
H 3.4825866198 2.1467874477 2.1091978227
H 2.31193634 3.4687324868 2.0399096
H 0.415951654 -2.7372401828 -1.6915494094
H 0.1893618581 -0.9666991289 -1.9172068493
H -2.0011583398 -1.8185608863 2.0741234733
H -0.67498051 -1.0639407972 3.0011991933
H -3.5785978594 -0.0857403739 2.9226894708
H -2.8254359528 -0.9608935614 4.2668899321
H -2.2721468098 0.6675155261 3.8434936699
H -4.2054881336 0.5668446479 -1.5129138688
H -4.4960661855 -1.1571722003 -1.1647704269
H -6.099920973 -0.5182345905 0.640279603
H -5.819313647 1.1933053424 0.2900712621
H -6.6010825268 0.1607741666 -0.9165864783
*
