! pbe def2-sv(p) def2/J RI DEFGRID1 loosescf d4 GCP(DFT/SV(P)) printgap
%output
    printlevel normal
end
* xyz 0 1
C 0.780404103 1.6959941954 0.0158114127
C 1.4483166598 0.3750583149 -0.4012866747
H 1.4464281223 0.2647679608 -1.4975332604
C 0.6514987779 -0.7978306699 0.1854697411
H 0.6077920849 -0.6858976242 1.2792046965
C -0.789446712 -0.781735768 -0.3527769697
H -0.7895086608 -1.1948788715 -1.3736624673
C -1.2966833819 0.6861306069 -0.4041776634
H -1.1935867873 1.0659787153 -1.4415333735
O -0.5503274153 1.5134914276 0.4550851481
O -2.618134371 0.7203918649 -0.002249552
O -1.5816811376 -1.5937003403 0.4736638881
O 1.3260069747 -1.9817956624 -0.1607365647
O 2.770770926 0.3851798931 0.0689684869
H 0.8007578713 2.4121085206 -0.8148339061
H 1.3226358673 2.108903477 0.867154445
H -2.8067370538 1.5844289246 0.3964881785
H -2.4465897978 -1.1611321946 0.5819737452
H 0.8328564416 -2.7369223227 0.1897983777
H 3.1344150599 -0.5084357786 -0.0336218226
*
