! pbe def2-sv(p) def2/J RI DEFGRID1 loosescf d4 GCP(DFT/SV(P)) printgap
%output
    printlevel normal
end
* xyz 0 1
C 4.8297522996 0.2810699185 -1.9148146863
C 4.6005267069 -0.9985117957 -1.1281397484
O 3.1918227427 -1.3029168557 -1.1098946711
C 2.5455771436 -1.306979587 0.0381020383
O 3.0540397014 -1.1398120819 1.1228088918
C 1.0639288993 -1.5711999517 -0.1738459741
C 0.4525877416 -0.4833715914 -1.0614030119
H 0.9711263271 -0.4563036212 -2.0231481739
C 0.5411506673 0.8705421989 -0.3891970919
O -0.4461646179 1.5001697226 -0.062836643
O 1.77381026 1.2554699465 -0.210240445
C 2.0114396607 2.4364266625 0.5900843255
C 1.9881388993 2.080389796 2.0669277748
S -1.2911315578 -0.8099067129 -1.448747859
P -2.288485028 -0.1751686019 0.3377397301
S -1.4469467936 -0.1870474626 2.1097280886
O -3.2168653786 1.0696260049 -0.0439662595
C -2.9954914258 2.4501520068 0.2371816536
O -3.4149534671 -1.3041543519 0.389420315
C -4.3280479766 -1.5709175663 -0.6873088731
H 5.8897622199 0.5120557561 -1.922991043
H 4.4817092989 0.1595802362 -2.9362813932
H 4.2874898724 1.1024431636 -1.454062282
H 4.9492503701 -0.9039348178 -0.0962950579
H 5.0867126818 -1.8499025106 -1.6084112086
H 0.5726800177 -1.5992630396 0.8015086664
H 0.9437781276 -2.534518133 -0.6709741306
H 2.9970780947 2.7814765551 0.2784890468
H 1.248458771 3.1811726096 0.3505169065
H 0.9958479419 1.7419520077 2.3618416656
H 2.6929099595 1.2765761683 2.2675791277
H 2.2545767224 2.951842142 2.6549337075
H -2.4411020206 2.5633603389 1.1686217155
H -3.9859949158 2.8915699047 0.3264845783
H -2.4390877655 2.9063624437 -0.5793013615
H -4.9616385303 -0.7032648415 -0.8614473094
H -4.9190417212 -2.4201943112 -0.3539740721
H -3.7750675342 -1.8196376011 -1.5934492095
*
