! pbe def2-sv(p) def2/J RI DEFGRID1 loosescf d4 GCP(DFT/SV(P)) printgap
%output
    printlevel normal
end
* xyz 0 1
C 3.1680682274 -2.4432850961 -2.2347022423
C 4.2804764813 -1.9502751622 -1.3341306343
O 4.0711225556 -0.5866181584 -0.8914940819
P 2.9125010286 -0.0854867089 0.0458701072
S 3.384019783 1.6627703212 0.7934927262
O 2.7647338004 -1.3162977406 1.0461546714
C 1.6635521416 -1.5161948861 1.9478639681
C 1.6423537336 -0.5071747592 3.0777326195
S 1.1079987553 -0.0936921774 -1.1197086411
C 0.352976065 1.4237463189 -0.4932987027
S -0.8456744921 1.1199339458 0.8235495668
P -2.4039087238 0.4016003358 -0.4519289324
S -2.5560660163 1.324449321 -2.1696074732
O -3.6767281696 0.4677811663 0.4938277787
C -4.2644882413 1.7331156969 0.8618732102
C -5.6302170477 1.4535102182 1.4552248208
O -2.1688661937 -1.1428745358 -0.6279050243
C -2.1310503352 -2.0763610103 0.4825386977
C -3.4739456332 -2.7554408283 0.654384677
H 3.031083882 -1.7670077846 -3.0748645008
H 3.4240716206 -3.4298325182 -2.6085115797
H 2.2306960421 -2.5054024923 -1.6845457303
H 5.2312564028 -1.8940621609 -1.8662615721
H 4.3839318461 -2.5841753488 -0.4519057684
H 0.7325074271 -1.4734172636 1.3743601819
H 1.8193561747 -2.5291836707 2.3231631893
H 2.6051844153 -0.4861051167 3.5815388355
H 1.4297924294 0.4902047912 2.6963700447
H 0.8695438282 -0.7808556509 3.788583072
H -0.1611320619 1.9009289308 -1.328618834
H 1.1357334339 2.0670062108 -0.0836365808
H -3.6045375638 2.2185034796 1.5859656913
H -4.3346996229 2.3582479773 -0.0342468386
H -5.5332133554 0.8133485408 2.3271515849
H -6.0887731783 2.3919685921 1.7487728513
H -6.2624416551 0.9607814949 0.7218936208
H -1.3559042356 -2.7939336476 0.2070410546
H -1.8427576245 -1.5371962959 1.389410714
H -3.3999153512 -3.492803776 1.4475465296
H -4.2347678232 -2.0239758903 0.9125718936
H -3.7622032666 -3.2488692283 -0.2696081664
*
