! pbe def2-sv(p) def2/J RI DEFGRID1 loosescf d4 GCP(DFT/SV(P)) printgap
%output
    printlevel normal
end
* xyz 0 1
C 3.0208158459 0.8919863339 -2.2455269427
C 2.1988794006 -0.3789184454 -2.2744119736
O 1.3413323732 -0.5074139826 -1.1206085282
P 1.8330943809 -0.502727418 0.3815960747
S 2.4039167178 1.1581430019 1.2674104188
O 2.9680676827 -1.6164036291 0.3242230043
C 3.8508727122 -1.8760367024 1.4330491171
C 5.1596277016 -2.4070538049 0.8830771874
S 0.2408700974 -1.4879918206 1.3366293059
C -0.6663789913 -0.0754822945 2.0488524023
S -2.3460089268 0.069658067 1.4114391275
P -1.8826952664 0.7408518568 -0.5564766499
S -0.4566068496 2.0767850841 -0.6761333392
O -3.3125402294 1.1433558286 -1.1213528194
C -4.2817328143 1.9600539344 -0.436804546
C -3.727938268 3.3068878434 -0.0229744084
O -1.534617377 -0.4984087332 -1.4668203991
C -2.4408093709 -1.5859933167 -1.7879213921
C -2.2084767204 -2.7835431738 -0.8884639992
H 2.3694380078 1.7549524088 -2.1151719701
H 3.7250226029 0.8667158781 -1.4145478408
H 3.5698218901 0.9921506858 -3.1764155439
H 2.8390774607 -1.2629170833 -2.3206896175
H 1.4953465993 -0.3781850505 -3.1091002348
H 3.997479862 -0.942910678 1.987847471
H 3.3638661622 -2.6081423449 2.0815384782
H 4.9802566006 -3.3054484713 0.2995320333
H 5.6315078736 -1.6615096784 0.2488118502
H 5.8216677537 -2.6413532427 1.7100676234
H -0.1040859597 0.8395658871 1.8400789178
H -0.7625632014 -0.2418431008 3.1185912229
H -5.0849119038 2.0677320035 -1.1680340356
H -4.6406835014 1.4050772193 0.4341114776
H -4.521912391 3.9048051238 0.4124915657
H -2.93536478 3.1789183144 0.7129465194
H -3.3131634426 3.8278365088 -0.8827986011
H -3.4677779204 -1.2243594726 -1.7162271241
H -2.2068517474 -1.8223459513 -2.8273301894
H -1.1614411891 -3.0746401106 -0.913715042
H -2.4792803066 -2.5581734155 0.1401223878
H -2.8175487052 -3.6095834948 -1.2418037709
*
