! pbe def2-sv(p) def2/J RI DEFGRID1 loosescf d4 GCP(DFT/SV(P)) printgap
%output
    printlevel normal
end
* xyz 0 1
C 4.566513131 0.406175162 -2.0382006643
C 4.4650751605 1.0122764136 -0.65375635
O 3.6549914512 0.216494455 0.228644178
P 2.0897451545 0.0308672372 0.0178871664
S 1.1722476215 1.6826553784 -0.5272561866
O 1.6351194124 -0.5900257137 1.4019469647
C 1.4600151645 0.2083564486 2.5895253928
C 2.7366086445 0.2650516257 3.4030161455
S 1.9437563698 -1.6819964218 -1.1888715697
C 0.177794439 -1.6431172986 -1.5870690335
S -0.8940990783 -1.9310714503 -0.1447355331
P -1.9711505786 -0.1165182541 -0.0972011541
S -2.0756712366 0.8190512997 -1.8240293231
O -1.346440501 0.5919343442 1.1736291029
C -2.0349272856 1.6047756178 1.9439891049
C -2.2805492731 2.8639370427 1.1394660354
O -3.3908369618 -0.5428401127 0.4781169147
C -4.4181062684 -1.1066124316 -0.3604930647
C -5.7608578769 -0.8192485986 0.2810859046
H 5.2851083714 0.9690726435 -2.6252421025
H 4.8827771266 -0.631886909 -1.9741502739
H 3.597306747 0.4468072951 -2.5340216339
H 4.033830167 2.0173672044 -0.7047147205
H 5.435601358 1.0470949418 -0.1569996778
H 1.1326956378 1.210041305 2.2902070746
H 0.6568769115 -0.2908309971 3.1355082042
H 2.5461047658 0.8022348714 4.3269735027
H 3.0725750512 -0.7421160397 3.6329589386
H 3.5174789498 0.7762992593 2.8453620843
H 0.0200628137 -2.4549267415 -2.292583761
H -0.0918527323 -0.6802005688 -2.0319170711
H -2.9715716991 1.1790855185 2.3097888405
H -1.358362879 1.7922657554 2.7796581681
H -2.9848951001 2.6660543361 0.3327356276
H -2.6860902857 3.6354128642 1.7861373681
H -1.3487135714 3.2140129363 0.6983595402
H -4.3430850053 -0.6545058903 -1.3553956141
H -4.2339983044 -2.1807980118 -0.4386986561
H -5.9261178734 0.2528299316 0.3438930709
H -6.5441713479 -1.2655915678 -0.3224617214
H -5.7925528088 -1.2415286849 1.2813510673
*
