! r2scan-3c def2/J RI DEFGRID2 scfconv6 printgap
%output
    printlevel normal
end
* xyz 0 1
C 5.0819522867 -2.3849766261 -1.4456588898
C 4.0883401205 -1.2463528912 -1.5594625699
O 3.0779073465 -1.4365432434 -0.5491524439
P 2.1748264605 -0.2393748064 -0.0310030274
S 3.1347732209 1.4130003319 0.4234270417
O 1.3640982601 -0.9267213081 1.138187964
C 1.7842599921 -0.8226427404 2.5163547829
C 3.0686425005 -1.5839755718 2.7635234521
S 0.6970422213 -0.0606489822 -1.5362591057
C 0.0406315876 1.5294523552 -0.964649373
S -0.8788158892 1.3885495041 0.5817153852
P -2.5678222307 0.385341504 -0.264127948
S -3.0756333795 0.9636723155 -2.0613844474
O -3.6429366341 0.4684538219 0.9030818014
C -4.0318621474 1.6685895929 1.5990608624
C -4.4693150611 2.7751167361 0.6629808181
O -2.2499639642 -1.1566556358 -0.279900933
C -1.9135945266 -1.9220554261 0.9046925323
C -1.1054207844 -3.1255924915 0.4665297947
H 5.5657723839 -2.3655321487 -0.4732680005
H 4.5703002546 -3.3352845408 -1.5663133422
H 5.8334850848 -2.2796937063 -2.221158007
H 3.5966034578 -1.2406072284 -2.5359523434
H 4.569027475 -0.2757672108 -1.3956464663
H 1.9053661735 0.2369729527 2.7626460861
H 0.9490586112 -1.2413330991 3.0790019088
H 3.8814676111 -1.1232631206 2.2032139594
H 3.3086894822 -1.5537917701 3.8216671575
H 2.9620269883 -2.6167828576 2.4431947739
H -0.6259323118 1.8935592163 -1.7475414163
H 0.8657670535 2.218990515 -0.7845100297
H -4.8523621063 1.337955761 2.2382644672
H -3.1875050933 1.9931232797 2.2135042525
H -3.6313160313 3.1014262192 0.0485830835
H -5.2600805579 2.4247334719 0.0039031208
H -4.8310149535 3.6172726546 1.2440479669
H -1.3434620031 -1.2827128985 1.5853545925
H -2.8505162761 -2.2158258347 1.3815520279
H -0.1638981743 -2.8062794545 0.0257907817
H -0.9027405362 -3.7530107351 1.3284809689
H -1.6613867131 -3.6944041908 -0.2731971135
*
