! r2scan-3c def2/J RI DEFGRID2 scfconv6 printgap
%output
    printlevel normal
end
* xyz 0 1
C 0.9555695839 -1.1890366645 -2.515626094
C 2.3794414166 -1.1749593034 -1.9962033175
O 2.5621052416 -0.1241285128 -1.0141428814
P 2.5951649319 -0.3370772249 0.5504062294
S 3.211741121 1.2722239889 1.4738238482
O 3.5237992489 -1.6222124332 0.6826717233
C 4.1956885707 -1.9711683363 1.9079197719
C 3.2290489656 -2.3583509697 3.0079145206
S 0.6724377733 -1.0464610757 1.133465659
C -0.0671932796 0.5803808727 1.3866111103
S -0.2457047145 1.5350895913 -0.1572982147
P -2.139340068 0.8086000844 -0.7344715888
S -2.7868030045 1.4032514056 -2.484176685
O -3.1064733952 1.1361224807 0.4987792953
C -3.8602693975 2.3613522751 0.5737213631
C -5.2956481225 2.11925454 0.1492020455
O -1.9172528913 -0.7440481697 -0.542402454
C -2.9879705742 -1.6825300209 -0.8124083246
C -2.382092501 -3.0696123268 -0.8524258209
H 0.260631817 -1.4665053282 -1.7265981895
H 0.680196878 -0.2048777846 -2.8904149246
H 0.8803463227 -1.9088515312 -3.3247969708
H 3.0847057395 -0.9241104628 -2.7904286181
H 2.6508890153 -2.1328431841 -1.5495391246
H 4.8360319502 -2.8063315189 1.6203357019
H 4.8097477466 -1.1198544521 2.2166284969
H 3.789087901 -2.7446514504 3.8534312729
H 2.6623089885 -1.486504919 3.3299598554
H 2.5366805674 -3.1182238126 2.6547565223
H 0.5873123868 1.1715087591 2.0275364466
H -1.0438561726 0.4284846825 1.8380553125
H -3.7984499218 2.6740379863 1.6175960563
H -3.3900797109 3.1154318612 -0.0639664429
H -5.8636287471 3.0359301718 0.2699778214
H -5.3275393701 1.817706886 -0.8956573527
H -5.7399754802 1.3372078265 0.7581976511
H -3.7259101142 -1.5906326453 -0.0124471018
H -3.4534381466 -1.4112247141 -1.765415468
H -1.6969846099 -3.1591359542 -1.6903637148
H -1.838679178 -3.2596138651 0.0692683144
H -3.1765384878 -3.8005561017 -0.9618659612
*
