! pbe def2-sv(p) def2/J RI DEFGRID1 loosescf d4 GCP(DFT/SV(P)) printgap
%output
    printlevel normal
end
* xyz 0 1
C 5.0234236571 -1.1865094374 -1.8224169681
C 4.6672003087 -0.28910493 -0.6545775126
O 3.5018361555 0.5131703538 -0.9681710037
P 2.0591024112 0.2187532166 -0.3821281429
S 0.8300990863 1.6121432099 -0.9885445069
O 2.2017494392 0.0521193852 1.2033070225
C 2.0998234455 1.173348715 2.0987052804
C 3.3089049787 2.0797024447 1.9985978033
S 1.7449358923 -1.806166102 -0.8716716494
C 0.1786952045 -2.1518535938 -0.0292975973
S -1.2962836995 -1.7910104789 -1.0389772491
P -2.1470747275 -0.1744388548 0.0172310736
S -1.2629249107 0.2444970511 1.7227654362
O -3.6852830031 -0.5632481335 0.1721636161
C -4.1653316024 -1.4206313741 1.2268564541
C -4.8004423727 -0.5969800857 2.3304589978
O -2.2354997562 0.8886563847 -1.1426928889
C -3.1204137143 2.0294224163 -1.1541709562
C -2.8158709699 2.9975514033 -0.030498255
H 5.9426081754 -1.7166981923 -1.5944728083
H 4.2297352074 -1.9081197832 -2.0034226913
H 5.1652496879 -0.5892876603 -2.7187985666
H 5.4577678001 0.4384584683 -0.4616986898
H 4.4688789603 -0.8711215914 0.2486517916
H 1.181448033 1.7222134001 1.8679934816
H 2.0062479934 0.7160591596 3.0847604008
H 4.2192760877 1.5205032478 2.1985095092
H 3.3643679299 2.5089771386 0.9983214497
H 3.2133172507 2.88325063 2.7219492668
H 0.1235836226 -1.5752860812 0.898668552
H 0.1812623271 -3.2210073129 0.164183491
H -4.892949461 -2.0769633177 0.7465789701
H -3.3352886478 -2.0160525341 1.6166445053
H -4.051709521 0.0375272682 2.8000069563
H -5.5905733438 0.028498419 1.9246626704
H -5.2174071159 -1.2634344203 3.0783718731
H -2.931514512 2.4807740688 -2.1295957111
H -4.1494366347 1.6664428215 -1.0995353351
H -3.0231565288 2.5347450177 0.9335411552
H -1.7644986452 3.2780483463 -0.0624800405
H -3.4299686093 3.8856612007 -0.139243065
*
