! pbe def2-sv(p) def2/J RI DEFGRID1 loosescf d4 GCP(DFT/SV(P)) printgap
%output
    printlevel normal
end
* xyz 0 1
C 1.5338822342 -3.8158540732 -2.0608217421
C 2.1954557939 -3.6715522152 -0.6991864915
O 1.8600660981 -2.4089522401 -0.0905478586
C 2.5452959048 -1.3420628167 -0.4528222562
O 3.4736763554 -1.3476929675 -1.2281211629
C 2.0025755499 -0.0870787684 0.2050339525
C 1.0372930196 0.5976645146 -0.7684116915
H 1.558505077 0.8221616132 -1.7035124129
C 0.482608822 1.8855637463 -0.1883193814
O -0.7093837827 2.0665366003 -0.0310273412
O 1.4217922092 2.7309403197 0.1184342828
C 1.0444775312 3.9987083626 0.7028488604
C 0.6779151163 5.005388603 -0.374350783
S -0.3698765623 -0.4610611326 -1.2394049484
P -1.6585605003 -0.24165817 0.4382636112
S -0.9593286939 0.1612341311 2.2365688974
O -2.983012867 0.4901057673 -0.0332437405
C -3.4478028167 1.7562485552 0.4380569828
O -2.3220539856 -1.7010202631 0.3964421034
C -1.5766982981 -2.848093057 0.8133628998
H 0.458675975 -3.6792607705 -1.978683596
H 1.926429169 -3.0695520701 -2.747310289
H 1.741026494 -4.8045853497 -2.4561085191
H 3.2833381803 -3.731963682 -0.7923589728
H 1.8314480297 -4.4190935948 0.0057734974
H 2.8267037909 0.5961136739 0.41165824
H 1.4871484149 -0.3504123242 1.1300444726
H 0.2084953476 3.8294378785 1.3867350621
H 1.930907357 4.309192296 1.2551918138
H 0.4589587017 5.9604743428 0.0912436521
H 1.5035098958 5.1271172823 -1.0699475892
H -0.2007990992 4.6711755327 -0.9210828698
H -3.0086658908 1.9868426477 1.4100598498
H -4.5287391274 1.6667214253 0.522030964
H -3.1758432184 2.5279875761 -0.279467234
H -2.2301557825 -3.6993073144 0.6424448844
H -1.3262337273 -2.7618578426 1.8722143154
H -0.6591889066 -2.9420248983 0.2309933991
*
