! pbe def2-sv(p) def2/J RI DEFGRID1 loosescf d4 GCP(DFT/SV(P)) printgap
%output
    printlevel normal
end
* xyz 0 1
C 2.9491445088 0.474702577 -2.9947128841
C 2.6307411383 -0.9350736906 -2.5384492321
O 1.7301927237 -0.9444540551 -1.4114589083
P 2.1481841443 -0.5952573987 0.0744004035
S 2.7511246223 1.2144933253 0.5569167689
O 3.2734829383 -1.7013634553 0.3109406406
C 4.189703342 -1.6464105519 1.4156994807
C 3.4920497112 -1.863133138 2.743120322
S 0.4336474042 -1.317749029 1.0574007214
C -0.1484924153 0.2151401872 1.8718768582
S -1.9307137472 0.4323223062 1.7416741209
P -2.1268913944 0.9279529731 -0.3260658276
S -0.4570512981 1.4401659583 -1.2169961902
O -3.1502625786 2.1176731474 -0.4264065809
C -4.5815897749 2.0271278771 -0.2146871795
C -4.9361568697 1.6413372952 1.2053126373
O -2.9824146979 -0.2629821371 -0.9494975372
C -2.6180987476 -1.6534448145 -0.9317163657
C -1.6344557979 -1.9929325331 -2.0336043709
H 3.5002260911 0.4384567448 -3.9288426926
H 2.0261605553 1.033324851 -3.1385221148
H 3.5465816265 0.9941062573 -2.2478056741
H 3.5379381125 -1.4814613967 -2.2687387803
H 2.0813848967 -1.482878459 -3.3063957646
H 4.9069731834 -2.4397625564 1.2013966226
H 4.6907320819 -0.6731103283 1.4005915726
H 2.8963908599 -2.7719753714 2.7138780864
H 4.2342270764 -1.9407294926 3.5309868557
H 2.838912164 -1.0177534232 2.9569078686
H 0.371724774 1.0630914792 1.4186468002
H 0.0593770111 0.1475277074 2.9368309635
H -4.9292204472 3.0326552309 -0.4566511563
H -4.9867887391 1.3107466976 -0.931156638
H -6.0140577813 1.6891478917 1.3254459913
H -4.6003018338 0.6287041518 1.4216383286
H -4.4666113879 2.3208779402 1.9116609906
H -2.2052098321 -1.9062055813 0.0503163089
H -3.5667342613 -2.1742481374 -1.0761128676
H -1.4448485447 -3.0614259571 -2.0265043558
H -2.0365795708 -1.7013215676 -3.0002822314
H -0.693400698 -1.468604457 -1.8782186205
*
