! pbe def2-sv(p) def2/J RI DEFGRID1 loosescf d4 GCP(DFT/SV(P)) printgap
%output
    printlevel normal
end
* xyz 0 1
C 4.2366486464 -2.349400659 -0.5602732169
C 4.1679948096 -0.9063563681 -1.0226115
O 3.4956138054 -0.0824491508 -0.0582516263
P 1.9488124086 0.3025002416 -0.1198352645
S 1.3330379898 0.6707139179 -1.9449442176
O 1.9037865634 1.4355108237 0.9750087412
C 1.9940379051 2.8371794517 0.6521069314
C 3.3442267872 3.1990307613 0.0708733623
S 0.958681004 -1.2029373062 1.0011681257
C 0.2966157626 -2.2206849441 -0.3444319287
S -1.217731205 -1.5971731838 -1.1720122801
P -2.0296544419 -0.2580072762 0.2320095328
S -1.2475512905 1.5192528868 0.561224435
O -2.1484445025 -1.2213983692 1.4804041579
C -2.2480556208 -0.7330745465 2.8330338821
C -3.5857694286 -0.0718230561 3.0886399726
O -3.5372038823 -0.1606061911 -0.2644536941
C -3.9862476201 0.8326767125 -1.199746796
C -3.4072062234 0.6106261075 -2.5823653926
H 4.8212254575 -2.9234013707 -1.2720721846
H 4.7077165189 -2.4017096862 0.4174160073
H 3.241031056 -2.7811045179 -0.4874729482
H 3.6541188079 -0.8130123908 -1.9859609146
H 5.1676633206 -0.4753076687 -1.1040949041
H 1.1836617498 3.0836426338 -0.0419624938
H 1.8120855442 3.3329028531 1.6067733807
H 4.1375365693 2.8820227175 0.7428347299
H 3.4767095662 2.7055198749 -0.8914884847
H 3.3958268556 4.2736618855 -0.0728491106
H 0.0589732064 -3.1829145528 0.1029263787
H 1.0342500237 -2.3232173069 -1.1394126486
H -2.1092062254 -1.6265118895 3.4428261815
H -1.4255373559 -0.0320180745 3.0109352511
H -3.6607643991 0.199321045 4.1369510686
H -3.6730070089 0.8290495299 2.4820321402
H -4.3941901847 -0.7496795418 2.8281725884
H -5.0718676531 0.7273409794 -1.1941409748
H -3.7038925566 1.8202799167 -0.8194127491
H -3.6100323944 -0.402859131 -2.9194089958
H -3.8457438003 1.3193598273 -3.2774567502
H -2.3268783682 0.7601841586 -2.5632216072
*
