! r2scan-3c def2/J RI DEFGRID2 scfconv6 printgap
%output
    printlevel normal
end
* xyz 0 1
C 5.8177108209 0.1215704032 -0.2698289563
C 4.5029876248 -0.5370738905 -0.6371222652
O 3.4514466728 0.1086037281 0.1081526895
P 1.9507095838 0.1715655151 -0.4212042549
S 1.8222309919 0.6552933051 -2.3222337501
O 1.3144314557 1.1459090504 0.6489796401
C 1.5161017498 2.5743532373 0.5625363103
C 0.7092299098 3.2192592137 1.6683992151
S 1.1748097667 -1.6874304067 0.1423105138
C -0.172983692 -1.8807225861 -1.0768429918
S -1.8077273936 -1.9749050832 -0.3194054802
P -2.0083201813 0.0615842364 0.2652114846
S -1.4251295698 1.3935445522 -1.0444925603
O -1.2791488389 0.2146949743 1.6544021789
C -1.6656869028 -0.5104634217 2.8541658883
C -0.6655609057 -1.6047601312 3.1672941243
O -3.5373196485 0.1610034752 0.6939162097
C -4.592920015 0.4661834142 -0.2346460459
C -4.8014441725 -0.6320621004 -1.2569211554
H 6.6248063863 -0.3838177658 -0.7897890502
H 5.806699388 1.1688614458 -0.5595517571
H 5.9795302075 0.0530892704 0.8020611275
H 4.4986040914 -1.596503683 -0.3695695064
H 4.2875890308 -0.4326727002 -1.7060800671
H 2.5848127431 2.7779190773 0.6675723023
H 1.1803197081 2.9077588767 -0.4258073587
H 1.0433538386 2.8529588475 2.6344788698
H 0.8356854443 4.2958684214 1.6204726094
H -0.3427074241 2.9743966495 1.5421947071
H -0.0229704195 -2.8269759548 -1.5898754897
H -0.1294989635 -1.0417388542 -1.7768634361
H -1.6763970557 0.2501627773 3.6364568682
H -2.6709496728 -0.9125653516 2.7187541519
H 0.3406293979 -1.194456509 3.1954367766
H -0.90527393 -2.0319856044 4.1358565918
H -0.6972674763 -2.3894281942 2.4153306551
H -5.467765573 0.5931717652 0.4047029662
H -4.3527688253 1.4121866141 -0.729653385
H -4.9109265273 -1.5944265815 -0.7635229898
H -5.6957560424 -0.417003521 -1.8329223366
H -3.9506204879 -0.6786899389 -1.9346255122
*
