! pbe def2-sv(p) def2/J RI DEFGRID1 loosescf d4 GCP(DFT/SV(P)) printgap
%output
    printlevel normal
end
* xyz 0 1
C 3.7852056919 0.6830860249 -3.0049608079
C 2.4932396692 0.4703951821 -2.2432761022
O 2.8107871402 -0.1999388439 -1.0091970552
P 2.0398340979 0.0150806339 0.36083226
S 1.4818495883 1.8415882242 0.7652023429
O 3.0897146412 -0.4782913663 1.4278958915
C 3.8070350447 -1.7379990979 1.3332851293
C 3.3521722058 -2.6826851188 2.4279090971
S 0.6025858876 -1.5716017878 0.3018347947
C -0.2476447726 -1.2120344394 1.8544671744
S -1.3571835337 0.2430495248 1.8072105978
P -2.0307453142 0.1930514838 -0.1925041401
S -0.9071058153 0.6866854035 -1.7329021724
O -3.3431385642 1.0866500709 -0.1008866061
C -3.3312070497 2.5005939582 -0.3523983509
C -2.5557098456 3.2573478509 0.7070488181
O -2.6060958058 -1.279592043 -0.208665267
C -2.8624950489 -2.0003450388 -1.4325213884
C -4.0519343028 -1.4304597292 -2.1756964378
H 4.2689671131 -0.2715235792 -3.189973016
H 3.5607843981 1.1637768425 -3.9513105737
H 4.4562706999 1.3160224436 -2.4306025259
H 1.7940517926 -0.1593093088 -2.7991204084
H 1.9986199828 1.4202802345 -2.0155120706
H 3.6486310309 -2.1670891795 0.3421701596
H 4.8573899351 -1.46866756 1.4526982944
H 3.9937314232 -3.5581413367 2.4252706138
H 3.4226643646 -2.1921720713 3.3948593886
H 2.3250193354 -2.997332828 2.2610644041
H 0.4805972294 -1.0046570106 2.6378190299
H -0.8419185856 -2.0926686848 2.0871298754
H -2.8956832171 2.6740387258 -1.3422952067
H -4.3864562222 2.7765529528 -0.3554528428
H -1.4983273679 2.9903010722 0.6625147216
H -2.6510139253 4.3244853979 0.5343961256
H -2.9320123654 3.0147672832 1.6979554277
H -1.9610608666 -1.9610844461 -2.0524774848
H -3.0409838241 -3.0233243232 -1.0995381981
H -3.8237235844 -0.4217654393 -2.5180420759
H -4.2728672783 -2.0541718133 -3.0360902061
H -4.9191111029 -1.3907570984 -1.5219308043
*
