! pbe def2-sv(p) def2/J RI DEFGRID1 loosescf d4 GCP(DFT/SV(P)) printgap
%output
    printlevel normal
end
* xyz 0 1
C 3.9021377827 -1.6816498597 -2.0545590272
C 4.1791274964 -0.1996323361 -1.8963054082
O 3.6590898299 0.3285167504 -0.6679448238
P 2.1012932903 0.4736247474 -0.3538232179
S 1.068378728 1.047581132 -1.9163080478
O 2.1347335838 1.5468046988 0.7919042977
C 2.4068418894 1.3138754816 2.1934406959
C 3.7185812101 0.5960934443 2.4209795126
S 1.536864135 -1.385806217 0.5247978057
C 0.3014753553 -1.9564004483 -0.6796177493
S -1.3609503788 -2.1883960741 0.0144456786
P -2.0316922689 -0.2028800639 0.165607546
S -0.9832831233 1.0810440743 1.2266895722
O -3.5094761484 -0.4071218572 0.7069745762
C -3.7953412112 -0.6178554398 2.1041414818
C -5.2443558187 -0.2463203579 2.3467829896
O -2.2651391177 0.1450279757 -1.3570132162
C -2.448041836 1.4939867788 -1.8296528538
C -3.7346655242 2.1005638835 -1.31420065
H 2.8384019172 -1.8466347463 -2.2173930673
H 4.4493010882 -2.0565537341 -2.9135601178
H 4.2138308541 -2.2218510323 -1.1644269107
H 3.7449301449 0.3645427352 -2.7282959406
H 5.2491384317 0.003355445 -1.8319249031
H 2.4136287975 2.3212208441 2.612239086
H 1.5650163321 0.7550692972 2.6118009016
H 3.9039336651 0.5295661484 3.4884794612
H 3.6735349764 -0.4097884898 2.0061853848
H 4.5305772905 1.1391718247 1.9445137876
H 0.6032376753 -2.9420877824 -1.0240260751
H 0.2513520421 -1.2367548335 -1.5020250593
H -3.6098919258 -1.6706127961 2.3321076795
H -3.1152578796 0.0036066502 2.6968981974
H -5.8899085998 -0.8438488458 1.7098891736
H -5.4896569092 -0.4341793696 3.3868288023
H -5.4058605708 0.8048816102 2.1249295649
H -1.5814422011 2.0901562161 -1.5252210066
H -2.4463019292 1.389013736 -2.915358453
H -3.8832146192 3.0720246281 -1.7752011652
H -4.5742299531 1.4517918974 -1.5494044967
H -3.6758043637 2.2260387012 -0.2335381799
*
