! r2scan-3c def2/J RI DEFGRID2 scfconv6 printgap
%output
    printlevel normal
end
* xyz 0 1
C 1.1894869101 -0.5501275781 -3.1633381169
C 2.2608069541 -0.546525902 -2.0921248142
O 1.7142940258 -1.127634507 -0.8908347625
P 2.1890302696 -0.7693726289 0.5828864073
S 3.4507462678 0.7343626721 0.6868408197
O 2.7156346841 -2.2040579622 1.0064114224
C 2.8503072324 -2.6772954448 2.3605501738
C 3.6768725036 -1.7508192015 3.2279064855
S 0.3883109171 -0.5797501929 1.6748016962
C 0.1686203745 1.1986489999 1.4167759969
S 0.066841967 1.676892667 -0.3362684646
P -1.9197895309 1.0720923685 -0.7396892241
S -2.509422152 1.2809389858 -2.594748814
O -2.668344276 1.9294326869 0.3623468658
C -4.0795415054 2.2192372329 0.2658684752
C -4.923598978 0.9687412915 0.3896905625
O -2.0609337007 -0.3986556627 -0.1493401046
C -1.8095723196 -1.5901388184 -0.9147008281
C -2.5670699362 -2.7261062813 -0.2574466188
H 0.3529136616 0.0844454811 -2.8761803731
H 1.6123905789 -0.1675833354 -4.0863471252
H 0.8256859156 -1.5605893603 -3.3263889469
H 2.6046870167 0.4697261219 -1.8718661815
H 3.116296183 -1.1563542515 -2.3913591551
H 1.8475764169 -2.806684469 2.7769688486
H 3.3311940493 -3.6500434385 2.2440669709
H 4.6477081722 -1.5702437575 2.7723628968
H 3.1702119141 -0.7940453829 3.3466625722
H 3.8164536427 -2.201360155 4.2052800497
H 1.0384353251 1.7267088441 1.8064720306
H -0.7422578407 1.4902037199 1.9317338545
H -4.2573646419 2.9146927916 1.0871816452
H -4.2640191597 2.7173305386 -0.6908877547
H -4.7552027499 0.3247356409 -0.4724509963
H -4.6624685807 0.4253960776 1.2940502543
H -5.9728054466 1.245342571 0.422538684
H -2.1407409843 -1.4202942789 -1.9448845328
H -0.7329260186 -1.7838626558 -0.9122197045
H -2.360946007 -3.6469194984 -0.7929318599
H -2.2464539429 -2.8295505101 0.7755001813
H -3.6352592885 -2.5299059316 -0.2790958513
*
