  24
        -36.25029036
 C         -2.5285379978        1.0671010289       -0.1936348553
 O         -2.0746963527       -0.1894129966       -0.6679191463
 C         -0.7547767591       -0.2000014051       -1.1385380070
 C          0.3059073183       -0.0645832145       -0.0078350821
 O         -0.1126162744       -0.6193258178        1.1972853643
 C         -0.4096469004       -2.0154194047        1.1864844025
 O          0.5054483522        1.2962899982        0.1906951556
 C          1.3629781040        1.6451735451        1.2833467978
 O          1.5120048433       -0.7128447851       -0.3566246459
 C          2.1589155966       -0.2446758933       -1.5363626512
 H         -3.5767203147        0.9224910005        0.0545114471
 H         -2.4236976732        1.8293669074       -0.9715484989
 H         -1.9711445368        1.3790086687        0.6922308276
 H         -0.6204397937       -1.1655296984       -1.6296515163
 H         -0.5844169062        0.6174736927       -1.8506466452
 H         -1.3221663540       -2.2065696681        0.6191695151
 H         -0.5549988470       -2.2710299013        2.2323299273
 H          0.4270809485       -2.5769926970        0.7699607863
 H          2.2946830905        1.0803351533        1.2275266463
 H          0.8662916816        1.4392757883        2.2319012307
 H          1.5470312508        2.7089155310        1.1652316345
 H          2.1658023501        0.8462076105       -1.5642447898
 H          1.6675599286       -0.6358320215       -2.4292949700
 H          3.1746216475       -0.6263494319       -1.4719967788
