! pbe def2-sv(p) def2/J RI DEFGRID1 loosescf d4 GCP(DFT/SV(P)) printgap
%output
    printlevel normal
end
* xyz 0 1
C 2.9671509395 2.0756660249 0.843921757
C 1.6319452824 1.6962047971 1.4492596068
O 1.4679066642 0.2720344325 1.6202954884
P 1.6939800961 -0.8538907196 0.5244230636
S 0.8780752862 -2.5428031806 1.0736308685
O 3.2758580597 -0.9667397986 0.2956480854
C 4.0898190544 -1.90732109 1.0131727076
C 4.27247639 -1.5033179283 2.4627700999
S 1.2279085765 -0.0782551466 -1.3904156389
C -0.0660207268 -1.2457864708 -1.8892023432
S -1.6945320464 -0.4990242263 -2.2342702842
P -1.9935112671 0.6899561025 -0.5026490916
S -3.8460557203 1.2320874111 -0.1831828887
O -0.9438866032 1.8770185124 -0.6453809435
C -1.0505686801 2.8324646266 -1.7227793325
C -1.7252606751 4.1031344463 -1.245551894
O -1.2575467155 -0.0787554032 0.6814366295
C -2.0365470104 -0.7628625469 1.6829304732
C -2.6945800846 -2.0127929417 1.134918406
H 3.0292396261 3.1577105281 0.7792615003
H 3.783686969 1.7078673542 1.460010583
H 3.0640375078 1.654439884 -0.1561405535
H 0.8052534551 2.0564474845 0.8329175691
H 1.5252798299 2.0833904536 2.4643667009
H 3.6238382846 -2.8958997385 0.948347782
H 5.0359681475 -1.9094061967 0.4703053408
H 4.7329113977 -0.5211616245 2.5296654049
H 3.3035627461 -1.4742925221 2.9613114494
H 4.9049337068 -2.2301004077 2.9627843517
H -0.1689880236 -2.0045218514 -1.1092064953
H 0.2283559803 -1.6960952586 -2.8341201825
H -0.0206122032 3.0152368424 -2.0368196219
H -1.6066548456 2.3808983946 -2.5513929553
H -2.7429324381 3.8897481126 -0.9255110083
H -1.1777106295 4.5281447131 -0.4092383899
H -1.752471589 4.8195130462 -2.0601060604
H -1.3135704955 -1.0011047055 2.4646567168
H -2.7896690776 -0.0683567017 2.0660839906
H -1.9437684933 -2.718740868 0.7876237504
H -3.2794364137 -2.4796812473 1.9206894031
H -3.3559629886 -1.7516825656 0.3087364586
*
