! pbe def2-sv(p) def2/J RI DEFGRID1 loosescf d4 GCP(DFT/SV(P)) printgap
%output
    printlevel normal
end
* xyz 0 1
C 1.0958419247 -3.3528213588 0.4597104679
C 2.3021004912 -2.5391699943 0.8838112761
O 1.9185031758 -1.1644506485 1.1029774914
P 2.5079111642 0.0760501673 0.3169423374
S 3.3986618746 -0.3956541782 -1.3717408137
O 3.4031943238 0.7139155461 1.4626677439
C 3.8391464475 2.083926543 1.524252004
C 4.5054862708 2.549898892 0.2461977066
S 0.8664934727 1.4060421406 0.1841359703
C 0.2004747075 0.7644884744 -1.3731252161
S -0.8239174855 -0.7049890196 -1.1499533094
P -2.6282883416 0.272453824 -0.5299975967
S -2.7123506739 2.197058009 -0.8651384307
O -2.8726016148 -0.1526293526 0.9866340051
C -2.2147432943 0.4736366741 2.1031219965
C -1.1778071558 -0.4580352072 2.7000923973
O -3.7594401983 -0.5119522843 -1.2867603799
C -3.8664883571 -1.9567830616 -1.3541491899
C -4.6577487807 -2.5097950937 -0.1873331736
H 0.7241677859 -3.0030507183 -0.5008031648
H 1.3870030386 -4.3944187308 0.3717393935
H 0.3038126171 -3.2617946645 1.1971855224
H 3.0851693984 -2.5733212188 0.1194458335
H 2.705168732 -2.8882035299 1.8361158819
H 2.9708683603 2.7066267136 1.757441569
H 4.5369539835 2.0934642872 2.3634958081
H 5.3223053447 1.8834541248 -0.0213056263
H 3.7863872521 2.5603955467 -0.5721397756
H 4.8927573799 3.5539619091 0.3867396816
H 1.0280537809 0.4809017546 -2.0254194423
H -0.4026746588 1.5613647527 -1.8085870938
H -1.766680139 1.4182905737 1.7770493689
H -3.0108719091 0.6855303469 2.8198463305
H -0.3838214161 -0.6638274243 1.9863394192
H -0.7429331225 0.0118643343 3.5763932059
H -1.6428975342 -1.3961567265 2.9897732208
H -4.3762222331 -2.1367188055 -2.3022420137
H -2.8596257219 -2.3817812017 -1.3901724499
H -4.1373309596 -2.3231598101 0.7475660599
H -5.6352925048 -2.0373476689 -0.1436486474
H -4.7825141279 -3.5797818679 -0.3216094919
*
