! pbe def2-sv(p) def2/J RI DEFGRID1 loosescf d4 GCP(DFT/SV(P)) printgap
%output
    printlevel normal
end
* xyz 0 1
C 4.5552091182 1.4167531921 -1.1600227277
C 4.7541693229 0.0570771247 -0.5228823828
O 3.5352531827 -0.7071452507 -0.4606792965
P 2.3024924299 -0.2723452672 0.4430804532
S 2.7480260091 0.4737225103 2.1917467446
O 1.4700400218 -1.6075500022 0.5592222871
C 1.2050684075 -2.4828373648 -0.5643008682
C 2.2042201202 -3.6192301522 -0.6064141239
S 1.1619719255 0.9948676756 -0.8484754927
C 0.2632378042 1.8619152853 0.4595548638
S -0.8856731586 0.8057710393 1.3878123445
P -2.2582677264 0.3355469032 -0.1587720074
S -1.8024773241 -0.9907195886 -1.5333008613
O -2.5459483364 1.8003619777 -0.6833287212
C -3.1161393603 2.0435233849 -1.9880962861
C -4.5647362861 1.6093372495 -2.0550913332
O -3.5842234335 -0.0197067158 0.6448998381
C -3.8914426225 -1.362514846 1.0504930414
C -2.9744812403 -1.8364183836 2.1600982623
H 5.5223824517 1.8870267013 -1.305608971
H 4.0535096119 1.3168642195 -2.1194174909
H 3.951047461 2.0482772721 -0.5106183035
H 5.1441143699 0.162461088 0.4940082526
H 5.4222617116 -0.5699183137 -1.1150663594
H 0.1903892712 -2.8505553772 -0.3982490449
H 1.2219796267 -1.8976781836 -1.4878872947
H 2.1996962657 -4.1509538993 0.3411647334
H 1.9259299934 -4.3013000635 -1.4036187237
H 3.2042704219 -3.237060129 -0.7918877648
H -0.2811348036 2.6767694406 -0.0097074443
H 0.9747009989 2.2300130795 1.1999447653
H -3.0087711371 3.1204172734 -2.1238420732
H -2.5164254703 1.5108691375 -2.7331512817
H -4.9848162534 1.9039444964 -3.011639554
H -4.6312784131 0.526591937 -1.9574741073
H -5.1325469348 2.0699692265 -1.2510281298
H -4.9296804859 -1.3105212956 1.3804363751
H -3.808803098 -2.0169732196 0.1758774642
H -1.9463111426 -1.8849718915 1.7992277192
H -3.0098505189 -1.1479846387 3.0007729541
H -3.2801815999 -2.8246987906 2.4881732727
*
