! pbe def2-sv(p) def2/J RI DEFGRID1 loosescf d4 GCP(DFT/SV(P)) printgap
%output
    printlevel normal
end
* xyz 0 1
C 4.6500827189 1.0560028692 0.6406218674
C 3.5986013962 1.1394672021 -0.4468772831
O 2.7710197038 -0.0399676349 -0.4635179802
P 1.6609641273 -0.2977220345 0.6595072647
S 0.9599560409 1.2996405586 1.5339137149
O 2.2826239966 -1.2611180018 1.7539730218
C 3.0144468186 -2.4687900606 1.4270876673
C 4.0353418746 -2.7048397032 2.521381158
S 0.4400966347 -1.6432332817 -0.4513742176
C 0.2478987291 -0.6879830942 -1.9803341248
S -0.4086972986 0.9744490289 -1.7032320792
P -2.318395209 0.3628045875 -1.0127106863
S -3.1132525379 -1.159045785 -1.9435604169
O -3.187487507 1.6700792169 -1.1831775566
C -2.7480206425 3.030035322 -0.9534072824
C -2.3753158019 3.2852201049 0.4911829183
O -2.1671863614 0.158629234 0.5638173676
C -2.5299686684 -1.0441907997 1.2716944703
C -1.6742578994 -1.1545017599 2.5166258066
H 5.2676338462 0.1716149785 0.5051433383
H 5.2778098139 1.9406636152 0.6036419455
H 4.1649081291 1.0076396214 1.615374673
H 4.0429470277 1.1690484358 -1.4426531712
H 2.9571974867 2.0137351714 -0.298887322
H 2.2916887312 -3.2858670489 1.3712620397
H 3.4910963399 -2.3420485994 0.4518993523
H 4.5670701461 -3.628889003 2.3185813355
H 4.7446074309 -1.8826913444 2.5620621994
H 3.5355666538 -2.7806179921 3.4827383401
H -0.4476736095 -1.2551207822 -2.6007256343
H 1.2129424125 -0.5708140906 -2.4663557074
H -1.9039039555 3.2355640791 -1.617426515
H -3.6114165679 3.6236575894 -1.2585039189
H -2.1428959501 4.3380654282 0.6168850602
H -3.2006935484 3.0191798647 1.1462469793
H -1.5019033561 2.6991926885 0.7734542994
H -3.5883033314 -0.961774109 1.5312502792
H -2.3942322029 -1.905964469 0.6101017154
H -2.0022569282 -2.0108865478 3.0962317106
H -0.6253663125 -1.284262164 2.2534767599
H -1.766602796 -0.2515234586 3.1137030591
*
