! pbe def2-sv(p) def2/J RI DEFGRID1 loosescf d4 GCP(DFT/SV(P)) printgap
%output
    printlevel normal
end
* xyz 0 1
C 1.8059998268 -0.4049516765 -3.7116243857
C 2.1001829489 -0.972127889 -2.3384931176
O 2.1040691704 0.1376967236 -1.4035509567
P 2.3078427312 -0.0527235259 0.145530704
S 2.4535592303 1.6226901932 1.1387154699
O 3.6276215462 -0.949744038 0.1559716353
C 4.4717486392 -1.0890986334 1.3115063768
C 3.7654028596 -1.7645287038 2.4691624856
S 0.779307084 -1.4260555534 0.761643138
C -0.0002875737 -0.4474911036 2.0807049676
S -1.8103678529 -0.422881322 1.9756283577
P -2.0397712493 0.2506927375 -0.0041071178
S -0.7408569625 1.5593429053 -0.6984098355
O -3.5481143347 0.7458956234 -0.031962424
C -3.939714869 2.0294243022 0.493477138
C -5.2958205775 2.3761658203 -0.0873582849
O -2.1318060797 -1.1248490007 -0.7744700629
C -1.9270621537 -1.2325076496 -2.1979509379
C -3.0761337206 -0.6267277355 -2.9751749484
H 0.8760814015 0.1580398297 -3.6916903546
H 2.6036810727 0.2664275824 -4.0157214717
H 1.7229128057 -1.2179487169 -4.4253487446
H 3.0785380259 -1.4548298108 -2.3010117958
H 1.3342136936 -1.6856332506 -2.0182085719
H 5.3099511113 -1.6848999689 0.9472956194
H 4.819976619 -0.0937791588 1.603575759
H 4.4837542906 -1.963473468 3.2578919824
H 2.9884540371 -1.1083418732 2.859312455
H 3.3140587705 -2.6992765777 2.1461803353
H 0.3920856062 0.5726429018 2.0286065695
H 0.2253974164 -0.9060403683 3.0405760945
H -3.9798272663 1.9541959086 1.5835031931
H -3.1804232702 2.7680433366 0.2137830628
H -5.6256529232 3.3254840395 0.3215913128
H -5.2325511637 2.454832816 -1.1689577103
H -6.0144432709 1.6032793077 0.1686396533
H -0.9864586346 -0.7325308031 -2.4498146961
H -1.8379020449 -2.3061626983 -2.3682636696
H -3.1083970925 0.4486213314 -2.8042074882
H -2.9339907512 -0.8139176679 -4.0349749271
H -4.0175247107 -1.0617837758 -2.651130206
*
