! pbe def2-sv(p) def2/J RI DEFGRID1 loosescf d4 GCP(DFT/SV(P)) printgap
%output
    printlevel normal
end
* xyz 0 1
C 3.6278409783 -2.4184301655 1.5007703554
C 2.8509464404 -2.9502733368 0.3076485654
O 2.7687392963 -1.9534326468 -0.7317568663
C 1.7998492565 -1.0760874646 -0.6871069176
O 0.9387910426 -1.0567942024 0.1794890585
C 1.839385626 -0.0957951288 -1.8290229226
C 0.7541652333 0.9540079286 -1.6659204775
H 0.734425708 1.6365771523 -2.5190479272
C 0.8989914739 1.7714072067 -0.3917536939
O 1.8065550064 1.6191167901 0.3971860071
O -0.0522333081 2.6694902685 -0.2995881701
C -0.0897456273 3.5537520079 0.8369609132
C -0.3776167896 4.9615932904 0.3482881569
S -0.93033031 0.2252585796 -1.722174048
P -1.4186657617 -0.5297247657 0.2148067831
S -1.49530989 -2.4667483002 0.561403629
O -0.8824770069 0.4530199983 1.3467455342
C -0.1145070858 0.032326002 2.4743564326
O -2.9220095438 0.057313038 0.2705605621
C -3.9464458818 -0.4509541235 -0.5819668745
H 3.7031477392 -3.1950217414 2.254441549
H 4.6248080841 -2.1154010619 1.193488154
H 3.114348495 -1.559991198 1.929364349
H 1.8365122149 -3.2412070175 0.5969404135
H 3.3647846617 -3.7883294822 -0.1626587722
H 1.7009685517 -0.6391097934 -2.7651366904
H 2.825364579 0.3725254303 -1.8410668136
H -0.8864869763 3.1872640969 1.4902763906
H 0.8687510771 3.4884122464 1.3600179437
H 0.4281120847 5.3137890356 -0.289702494
H -1.3052899031 4.9733512091 -0.2160352872
H -0.4696099594 5.6224775591 1.2037609524
H 0.9091258982 0.3872575331 2.348784182
H -0.1228104709 -1.0556482072 2.5576447027
H -0.5757883864 0.4826827843 3.3508448963
H -3.7575004765 -0.1570207442 -1.615696615
H -4.8731517507 -0.0113549092 -0.2219671439
H -3.9874070924 -1.5399889832 -0.5096261095
*
