! pbe def2-sv(p) def2/J RI DEFGRID1 loosescf d4 GCP(DFT/SV(P)) printgap
%output
    printlevel normal
end
* xyz 0 1
C 5.379920868 0.1364589356 -0.8792333241
C 3.959940469 0.2054307228 -1.4023143578
O 3.0695865923 0.7612040149 -0.4002832927
P 2.2108471538 -0.1175616971 0.5900220422
S 1.3950693392 0.9518404723 2.0084292364
O 3.2430769349 -1.2136784592 1.0998110303
C 3.0041631584 -2.0008869272 2.2797699249
C 1.8372497159 -2.9491963599 2.1000683012
S 0.9258952802 -1.2501096818 -0.7005190826
C 0.2895501959 0.1094958451 -1.720034186
S -0.659621029 1.3478797086 -0.8066300853
P -2.5663178334 0.3756101617 -0.776202736
S -2.7685592389 -1.0348744889 -2.1171061163
O -3.6398791829 1.5000136332 -1.0231456555
C -4.0565443086 2.5082478782 -0.0709473004
C -2.9302805826 3.4411678824 0.3207017508
O -2.8525938146 0.0202156041 0.7498773523
C -2.0546495278 -0.8240324676 1.5929519159
C -2.124527293 -2.2818285681 1.184672934
H 6.0349608232 -0.1995970087 -1.6771040552
H 5.6997369833 1.1186221407 -0.5419024517
H 5.4425600692 -0.5585117946 -0.0465913812
H 3.5990737388 -0.7846572424 -1.6934305002
H 3.8856422307 0.8942722082 -2.2464865119
H 3.9417729299 -2.5371931191 2.4317351576
H 2.8225633606 -1.3202283586 3.117353907
H 0.9146259701 -2.3803099492 1.9949149525
H 1.9749979637 -3.5582148093 1.2102300384
H 1.7581065365 -3.5925879853 2.9702978152
H -0.3590753174 -0.3594633447 -2.463308937
H 1.1146985008 0.6391145961 -2.1888267452
H -4.847801493 3.0378165827 -0.6038606055
H -4.4692136675 2.0030415883 0.8040301539
H -2.4786996489 3.8848379226 -0.5633140753
H -3.3258957439 4.2296655204 0.9534790067
H -2.1599236799 2.9042928624 0.8732758188
H -1.0234752838 -0.4538923109 1.5912846362
H -2.480975378 -0.6704706217 2.5863926056
H -3.162628088 -2.5918665242 1.094818914
H -1.632705522 -2.4393464396 0.2265183127
H -1.634082507 -2.8895728001 1.9384412868
*
