! pbe def2-sv(p) def2/J RI DEFGRID1 loosescf d4 GCP(DFT/SV(P)) printgap
%output
    printlevel normal
end
* xyz 0 1
C 2.6918622286 1.0394510627 -2.9334005984
C 2.7657240623 -0.3255326643 -2.2804910696
O 3.1811987224 -0.2280121402 -0.9069376686
P 2.2897517428 0.1334749076 0.3540834916
S 1.4460152475 1.8947295178 0.4994007688
O 3.3550175961 0.0097879274 1.509105291
C 4.1734615223 -1.1660082299 1.7402156875
C 3.7085679582 -1.8878600712 2.9895463653
S 1.0058015144 -1.5548431015 0.5572892575
C -0.2268200147 -0.7874529264 1.6591869526
S -1.9352897456 -1.0339553266 1.1136314405
P -2.0118377605 0.3259028533 -0.5228974427
S -0.7226940463 0.1290980501 -1.9794589554
O -1.9264487757 1.7649732672 0.1124846172
C -2.5580767302 2.2298297233 1.3278282417
C -4.0692295923 2.1863710927 1.2561001745
O -3.5248797018 0.2058281773 -0.9945784237
C -3.9474113024 -0.7393600504 -1.9925443081
C -3.8092011591 -2.1716954452 -1.51871155
H 1.8966304246 1.6287289355 -2.4803323099
H 3.6340165809 1.5677986743 -2.8132662564
H 2.4722265143 0.9179247772 -3.9889544366
H 3.5370366735 -0.9452710785 -2.7417706427
H 1.7990211865 -0.8320299997 -2.3372822414
H 4.1281866113 -1.8144349814 0.8632083694
H 5.1866756774 -0.7790505163 1.8580326417
H 2.7219221904 -2.3179236598 2.8368599641
H 4.4094873061 -2.6842612151 3.2184833324
H 3.6688388443 -1.1941444224 3.8246971269
H -0.0026327614 0.2819448219 1.7138297504
H -0.1632152869 -1.2600935701 2.6357850891
H -2.1928191985 1.6280062693 2.1643778646
H -2.1823355007 3.2501646134 1.4226277509
H -4.4162670627 1.156668947 1.2153396487
H -4.4766578964 2.6650308522 2.1413110955
H -4.4180462517 2.7110969101 0.3706361594
H -4.9887383843 -0.4724177142 -2.1775717312
H -3.3541040878 -0.5752509638 -2.8977047338
H -4.2515300762 -2.8365783206 -2.2535413709
H -2.7558859204 -2.4249266471 -1.4044818666
H -4.3081860577 -2.305310478 -0.5621693957
*
