! pbe def2-sv(p) def2/J RI DEFGRID1 loosescf d4 GCP(DFT/SV(P)) printgap
%output
    printlevel normal
end
* xyz 0 1
C 3.1467162599 1.9075719897 2.1848427705
C 2.3168342593 1.9236736418 0.9188449172
O 1.4755149538 0.7554360963 0.8019696242
P 2.0026036576 -0.7357920422 0.7485857069
S 2.3804023093 -1.6416716464 2.4434322515
O 3.2409676314 -0.6093821368 -0.2507630617
C 4.2519227212 -1.6283253109 -0.324241605
C 3.7526113884 -2.8676943216 -1.0388915616
S 0.4267597406 -1.6286097919 -0.3424424341
C 0.4520251081 -0.6236758908 -1.8561678191
S -0.2045804627 1.0633093325 -1.6614185602
P -1.9698908795 0.5703716438 -0.6309196914
S -2.9460606438 -1.0196053137 -1.2464028423
O -2.7964682164 1.924691718 -0.6926475505
C -3.5310379119 2.3084671224 -1.873914748
C -4.5474135443 3.3577967568 -1.4715236692
O -1.4809413649 0.583395188 0.8759367736
C -2.1264338029 -0.1977286807 1.8977856345
C -3.4803541249 0.3760786483 2.2564683712
H 3.7125689975 2.8310807315 2.2572763846
H 2.5055651218 1.8079711482 3.057647057
H 3.837483221 1.0652120007 2.1699461643
H 2.9516888791 1.9788969718 0.0319888655
H 1.6024555989 2.7488856789 0.9133670975
H 5.0717680215 -1.1518158711 -0.8634240749
H 4.5670828454 -1.8769469909 0.6942583802
H 4.5621688708 -3.5861836276 -1.1169902975
H 2.9368888219 -3.3175839557 -0.4735502908
H 3.3959785169 -2.6208678419 -2.0354656199
H -0.1678315704 -1.1683050516 -2.5665251774
H 1.4717132593 -0.5169304853 -2.217848916
H -2.8191634717 2.7014077583 -2.6046831736
H -4.0144660366 1.4168700262 -2.2874112861
H -4.0427461086 4.2092429382 -1.0244284024
H -5.0906844974 3.6824686693 -2.3528022098
H -5.2478345902 2.9455531794 -0.750724739
H -2.2203502202 -1.2299876463 1.5420306294
H -1.4292222909 -0.1661300936 2.7373541924
H -3.3810424332 1.4198533002 2.5422024319
H -4.1450637618 0.3061850782 1.3959535523
H -3.9053861933 -0.1890483884 3.0799345142
*
