! pbe def2-sv(p) def2/J RI DEFGRID1 loosescf d4 GCP(DFT/SV(P)) printgap
%output
    printlevel normal
end
* xyz 0 1
C 4.1844529925 -2.3287909721 1.041366273
C 2.7148375417 -2.2350425275 0.6820923944
O 2.5633919045 -1.2117993087 -0.3208416822
C 1.4676319825 -1.1934246524 -1.0445427004
O 0.5455400813 -1.9764906541 -0.9217172637
C 1.4777798885 -0.0703429036 -2.0608984387
C 0.351637731 0.9251255102 -1.767587889
H 0.318344623 1.6783456727 -2.5600370803
C 0.5270696649 1.6333648739 -0.4386666681
O -0.3950771636 1.777477082 0.3439509119
O 1.7470661561 2.0405743967 -0.2445807713
C 2.0606866511 2.7164978503 0.9937712272
C 1.7115914879 4.1926930512 0.9109353486
S -1.3079040075 0.1582535163 -1.7861190819
P -1.7185938947 -0.3198833516 0.2459425252
S -0.4719201512 -0.751235792 1.7123038819
O -2.9017212393 0.6667916752 0.6424905588
C -2.8642642454 1.6295352213 1.6948533659
O -2.7175001397 -1.5454830369 -0.029211252
C -2.2877741963 -2.8583338154 -0.3836166872
H 4.7677891077 -2.5930103942 0.1642275582
H 4.5341452034 -1.3756340968 1.4250805475
H 4.3156250628 -3.0902502013 1.802691246
H 2.0989948936 -1.9567802608 1.5437247302
H 2.3295054314 -3.1750464218 0.2745673542
H 1.3069299841 -0.5017190388 -3.0473862171
H 2.4387713148 0.4410122466 -2.0223644605
H 1.5158611865 2.2253331347 1.8049753691
H 3.1333987617 2.565373512 1.1105103977
H 2.0192030119 4.6820315102 1.828962117
H 2.2239729614 4.6522400624 0.0704777858
H 0.6386372801 4.3207945826 0.7880566648
H -2.6349340558 2.6080299499 1.2764941779
H -2.1066585862 1.3581504939 2.4324803835
H -3.8538196767 1.6216498771 2.1464258334
H -1.5084456389 -3.1972701771 0.3006913247
H -1.8974718062 -2.868919898 -1.4010196981
H -3.1719309421 -3.4853848601 -0.3002951964
*
