! r2scan-3c def2/J RI DEFGRID2 scfconv6 printgap
%output
    printlevel normal
end
* xyz 0 1
C -0.6792702729 -0.531076469 0.3668914526
C 0.6752111691 -0.5426396605 -0.3414192055
O 1.508947211 0.467924531 0.1932012281
O -1.4839792083 0.4802547072 -0.2043737692
H -0.5087171012 -0.3408004517 1.4324642212
H -1.1559018613 -1.5119584077 0.2419390585
H 0.5011006241 -0.3966205761 -1.4096391676
H 1.1532302178 -1.5178124695 -0.1813442793
H 1.9614796081 0.9389981715 -0.5162792591
H -2.2991488074 0.5719274755 0.3066750032
*
