! pbe def2-sv(p) def2/J RI DEFGRID1 loosescf d4 GCP(DFT/SV(P)) printgap
%output
    printlevel normal
end
* xyz 0 1
C 3.8785566037 -1.203152653 -2.3430862144
C 2.5096043205 -0.5643652609 -2.2399395242
O 1.8198599223 -0.971640903 -1.0431515401
P 2.2878704885 -0.5205955105 0.4025349925
S 3.134530469 1.2478692347 0.535387106
O 3.2039516316 -1.7439527188 0.8379039313
C 4.1035980769 -1.6736798276 1.9578398222
C 3.3662691528 -1.5698655973 3.2773631432
S 0.4834753343 -0.8095709471 1.4554234703
C -0.1685927047 0.8611564746 1.1979641909
S -0.5156067284 1.2527891923 -0.5462274781
P -2.5215102267 0.5357935 -0.5966089103
S -3.4277134489 0.701605364 -2.3234700477
O -3.2063489967 1.2948145735 0.6195992954
C -3.5554469211 2.6888402207 0.4941940226
C -4.3963455504 3.0638172924 1.6973791603
O -2.490354752 -0.895976629 0.0761032912
C -2.5568519438 -2.0997875401 -0.7103541895
C -1.3075924435 -2.3084916684 -1.5422537817
H 3.7960157545 -2.282990824 -2.2521864229
H 4.3221394302 -0.9520874767 -3.3014108368
H 4.5217428541 -0.8301208128 -1.5467943777
H 1.8490602612 -0.885294415 -3.0466145061
H 2.5863720422 0.5279469114 -2.2405192383
H 4.680096879 -2.5970590594 1.8889495412
H 4.7624823215 -0.8106486432 1.8180213045
H 4.0781879751 -1.6423332364 4.09334651
H 2.8521426071 -0.6117492487 3.3420368039
H 2.6327866448 -2.3674883566 3.3646378494
H 0.5743341284 1.5874675263 1.5263823169
H -1.0851410133 0.931426181 1.7786144799
H -2.6345262989 3.2791647381 0.4477884837
H -4.1083236109 2.8258963648 -0.4410827285
H -4.6771592023 4.1091801161 1.6229412801
H -5.2928770167 2.4515442925 1.727786555
H -3.8323498641 2.9067390892 2.6121590851
H -2.6849601174 -2.8888218277 0.0315453657
H -3.4383199697 -2.0436971841 -1.3566997571
H -1.3914020992 -3.2417388293 -2.0898254727
H -1.200256033 -1.4895815865 -2.2545192372
H -0.4233871601 -2.3420272989 -0.9102208022
*
