! r2scan-3c def2/J RI DEFGRID2 scfconv6 printgap
%output
    printlevel normal
end
* xyz 0 1
C -2.5115010721 -0.7573716856 0.0004984033
C -1.2152390917 0.0045989698 8.76127e-05
C -1.2067256431 1.3925492797 -2.58322e-05
C -0.0191695101 2.0996804801 -0.000252077
C 1.1854602162 1.4184471019 -0.0001460431
C 1.2174475344 0.0340887523 -1.9504e-05
C 0.0082136243 -0.6689265172 -0.0001472372
O 0.0864073809 -2.03323075 -0.0005784014
C 2.5049006958 -0.7313672853 0.0005494801
H -2.5976759957 -1.3827489259 -0.8882874347
H -2.5935981065 -1.3888627692 0.8853324611
H -3.3476150762 -0.0639771412 0.0047863398
H -2.1476061609 1.9232859362 0.0001213599
H -0.0315250863 3.1789615188 -0.0003400461
H 2.1162650558 1.9662366258 -6.03377e-05
H -0.801241964 -2.4187744742 -0.001400198
H 2.5538753645 -1.3792556339 -0.8734195848
H 3.3558657912 -0.056607921 -0.0044365272
H 2.5579406222 -1.3710400076 0.8803931745
*
