! wb97x-v def2-tzvp def2/J RIJCOSX DEFGRID2 scfconv7 GCP(DFT/TZ) printgap
%output
    printlevel normal
end
* xyz 0 1
C 0.6551438930858019 1.6824023200282838 -0.042132138011221454
C 1.4000738043587488 0.3697870617332293 -0.26920424861966213
H 1.6113974307397412 0.2422864579948242 -1.3411179124291348
C 0.5456371543687855 -0.7908558353129419 0.2020622013554373
H 0.41916267121881245 -0.7263086978261812 1.2937067752033615
C -0.8180175190748333 -0.7156150924153843 -0.4779252542085337
H -0.6705495496611253 -0.8342691797390894 -1.560610333987878
C -1.4842417538379125 0.6487959430420124 -0.26366360128945
H -2.3791549959654317 0.7385101137434025 -0.8912819003057155
O -0.6161104568214494 1.684364955167321 -0.7186580466252473
O -1.8162250106671096 0.7876127607030033 1.1024332245836919
O -1.613914098485533 -1.7864564744241656 0.03427471333807065
O 1.2148811989440866 -2.010282705016176 -0.14209283537544146
O 2.619423289976035 0.36263030864087126 0.4832475370973853
H 1.2222512004170123 2.517577309760764 -0.4607652722224755
H 0.5204365741222154 1.8492113160393806 1.0345571807883223
H -2.430576502742959 1.5300991918525164 1.1806651964578403
H -2.37307885408889 -1.896739741242599 -0.5528355538731711
H 0.6666862269409236 -2.737270202550452 0.1822266843022036
H 3.2202668671315013 0.9960586720973846 0.06899067813440644
*
