! r2scan-3c def2/J RI DEFGRID2 scfconv6 printgap
%output
    printlevel normal
end
* xyz 0 1
C -1.6348368376 -0.474601013 7.43e-07
C -0.601761901 0.6561539188 4.7524e-06
C 0.7360774462 0.1351063071 -1.5148e-05
N 1.7985646269 -0.2941208449 7.3639e-06
H -1.517662625 -1.0992439195 0.8822236964
H -2.6356749419 -0.0525714281 -9.20154e-05
H -1.5175356683 -1.0993679414 -0.8821260118
H -0.721108292 1.2825252934 0.8874389312
H -0.7211310026 1.2825189099 -0.8874319109
*
