! pbe def2-sv(p) def2/J RI DEFGRID1 loosescf d4 GCP(DFT/SV(P)) printgap
%output
    printlevel normal
end
* xyz 0 1
C 2.1136983574 2.5218892752 0.7064272912
C 1.5893207887 1.8957449688 1.9806806185
O 0.8861889259 0.6507608179 1.7493149502
P 1.5082321006 -0.6150025121 1.0367327629
S 0.7157580577 -2.3140317017 1.6150095284
O 3.0442757236 -0.4627389193 1.4397222357
C 3.9673478993 -1.5632166383 1.4131053734
C 4.2185585198 -2.0812356355 0.0115088493
S 1.5000622173 -0.2410145091 -1.0626880054
C 0.3481501875 -1.5144082219 -1.6179699448
S -1.1949786261 -0.8639832401 -2.3378732189
P -1.9552432062 0.3511461295 -0.7898672168
S -3.8601031062 0.7653730995 -0.9624109915
O -1.017662867 1.6364668511 -0.6716363844
C -1.2374305093 2.8042843009 -1.4831704324
C -0.6742070696 2.6297071075 -2.8801030061
O -1.4967138514 -0.4602925333 0.498729958
C -2.3590092374 -0.565655424 1.6505464357
C -2.3829598 0.7190436016 2.4493593357
H 1.3077218266 2.637869222 -0.0124180515
H 2.5340211686 3.4959641477 0.936928278
H 2.8874042903 1.8954925832 0.2663969607
H 0.8329177739 2.525987908 2.4521829834
H 2.4012837512 1.7010419521 2.6843830897
H 4.8743725841 -1.1499391029 1.8567801474
H 3.5722054345 -2.3605791479 2.0503282754
H 4.4949901964 -1.2664348699 -0.6525342375
H 5.021602154 -2.8107070693 0.041150103
H 3.3216154379 -2.5637731346 -0.3736625516
H 0.1154991793 -2.170727689 -0.7752145701
H 0.8113861993 -2.0655029779 -2.4329071501
H -2.3137346319 3.0049082556 -1.5170761996
H -0.7332085365 3.6078130248 -0.9435105376
H 0.3652667434 2.3134041919 -2.8309569036
H -1.2435863051 1.8776322004 -3.4241933825
H -0.7393141796 3.5736736085 -3.4115215807
H -3.3645214184 -0.8271860806 1.3067011626
H -1.9356852552 -1.3939820278 2.2219418997
H -3.0093513078 0.5827917541 3.3252318861
H -1.3752077519 0.9810093732 2.7589922767
H -2.7917136866 1.5230389518 1.8384892013
*
