! r2scan-3c def2/J RI DEFGRID2 scfconv6 printgap
%output
    printlevel normal
end
%cpcm
    smd true
    smdsolvent "water"
end
* xyz 0 1
C 2.5719195424 -2.7703309551 0.7406692144
C 3.2741562983 -1.8702965598 -0.260705068
O 2.3079096544 -0.9657816715 -0.8317022666
C 2.203358159 -0.8721464093 -2.1442805769
O 2.9195808821 -1.4505412882 -2.9313170993
C 1.079520176 0.0500432313 -2.5702280169
C 0.2160455577 0.521147195 -1.4097635936
H -0.5562235527 1.2106728484 -1.7736393074
C 1.0402124117 1.2867851447 -0.3891277123
O 1.942551233 2.0277596753 -0.7038178109
O 0.6138209537 1.0921719812 0.8405939858
C 1.259311118 1.7978554479 1.9190663725
C 2.3862324519 0.9656827533 2.5055793701
S -0.6561363183 -0.8815021113 -0.6349036682
P -2.0101180485 0.2306817262 0.5718136858
S -2.3641998865 2.0798037983 0.028654159
O -3.3080674788 -0.7112395023 0.555334565
C -4.0926637772 -0.8732298893 -0.630120526
O -1.597352103 0.0890290408 2.0892259002
C -1.3478526064 -1.196187367 2.6922200424
H 2.1076082671 -2.1696561852 1.5172019745
H 1.8035805184 -3.3558069519 0.2428868354
H 3.2981694836 -3.4386003428 1.1909130273
H 3.7311031006 -2.4426039864 -1.072906096
H 4.0367598431 -1.2539080289 0.222291016
H 0.4801884657 -0.4719395394 -3.3171025079
H 1.5368816452 0.9200829978 -3.0486117905
H 1.6319168056 2.7492467896 1.5293759051
H 0.4633384713 1.9730639988 2.6445014984
H 3.1471989302 0.7881893455 1.7493658426
H 2.8311197501 1.5051739405 3.3350666813
H 2.0054556624 0.0125541328 2.8613844266
H -3.5454991482 -1.4720807985 -1.3580321721
H -4.335915481 0.1015922765 -1.0559157504
H -4.9982082473 -1.3854242582 -0.3152496356
H -0.6287826803 -1.7549084113 2.0928379959
H -2.2784024051 -1.7547900836 2.7707199409
H -0.9454249305 -0.976513152 3.6777323607
*
