! wb97x-v def2-tzvp def2/J RIJCOSX DEFGRID2 scfconv7 GCP(DFT/TZ) printgap
%output
    printlevel normal
end
* xyz 0 1
C -0.4433843740951013 -0.6054708744635725 1.0521965851100645e-05
C 0.44313557055665936 0.6052139801848462 -1.7833810283929465e-05
Br 2.3324542060558096 -0.031063345852964976 -3.0366527607855e-05
Br -2.33268701444544 0.030856435033459174 1.6747049391790958e-05
H -0.33549806286659106 -1.2126919407179786 0.8971423330951531
H -0.33551444164531097 -1.2127252062987277 -0.8971008777436582
H 0.33526281149167436 1.2124399286342782 -0.8971459589256465
H 0.33527735956604854 1.2124741669850678 0.8970891438365215
*
