! pbe def2-sv(p) def2/J RI DEFGRID1 loosescf d4 GCP(DFT/SV(P)) printgap
%output
    printlevel normal
end
* xyz 0 1
C 2.419812807 2.2730984914 2.5105295688
C 1.4301545906 1.9053828534 1.4241298906
O 0.9894707057 0.5345433626 1.5750302038
P 1.5810063315 -0.6525147499 0.7262997219
S 0.8803507487 -2.3898660811 1.2939324045
O 3.1435900367 -0.4088195057 0.9321619312
C 4.1744895816 -1.1504776914 0.2557202583
C 4.4937894871 -2.4501019639 0.9687018553
S 1.3739140006 -0.1872323453 -1.3457977338
C 0.1438901396 -1.417477562 -1.8315966112
S -1.4512044598 -0.7193550995 -2.3636971384
P -2.0410952353 0.3873488261 -0.6659520453
S -3.929522155 0.8965629345 -0.6355806762
O -1.0282949142 1.6127230456 -0.5207092523
C -1.2423681674 2.8590837548 -1.2069639264
C -0.9358946388 2.7511114069 -2.6876701467
O -1.5161556439 -0.5538712319 0.5023197831
C -2.2738052122 -0.7384863806 1.7160912304
C -2.1740172896 0.466426741 2.6260810688
H 2.6879432762 3.319776685 2.4057906854
H 1.9764218909 2.1131929356 3.489611728
H 3.3143422191 1.6620079892 2.4279911108
H 1.8650679515 2.0310314773 0.4289215957
H 0.516061787 2.4973548199 1.5014515772
H 3.8645727977 -1.3333197873 -0.777038718
H 5.0338674365 -0.4770309633 0.2624683697
H 4.7666181214 -2.2537618486 2.0020683385
H 3.6315093259 -3.1129954494 0.9589006889
H 5.322103982 -2.9387271214 0.4658692899
H -0.0082126531 -2.1066176295 -0.9965040103
H 0.5174309562 -1.9381454513 -2.7101935311
H -2.2809780046 3.1666648507 -1.0463401439
H -0.5666470699 3.5563032539 -0.7091787865
H 0.058843804 2.3376676565 -2.8379479238
H -1.6630979238 2.1036394087 -3.1760713434
H -0.9871715168 3.738275143 -3.1355085009
H -3.3159032516 -0.9351351171 1.4461584197
H -1.8314957457 -1.6283715853 2.1679952933
H -2.6034134906 1.3366168811 2.1307429868
H -2.7253660669 0.2692227695 3.5399707857
H -1.1331399845 0.6659477766 2.8655765491
*
