! pbe def2-sv(p) def2/J RI DEFGRID1 loosescf d4 GCP(DFT/SV(P)) printgap
%output
    printlevel normal
end
* xyz 0 1
C 4.3599128851 -0.3712944194 -2.0938189818
C 4.4170266957 0.6559737266 -0.981979428
O 3.6148317411 0.283378962 0.1524331749
P 2.0304284732 0.1777049889 0.092119156
S 1.1255123668 1.5898031459 -0.9223330138
O 1.6261564551 0.2103692643 1.6172378485
C 2.1442969132 -0.7112586049 2.6123714238
C 3.3113806695 -0.0974209481 3.3569832956
S 1.6935194167 -1.8278687306 -0.5334505474
C -0.0633195907 -1.6849890476 -0.9273052151
S -1.0633292555 -1.159579082 0.5010079712
P -2.2094064105 0.4078064119 -0.3775265747
S -2.0942370583 0.5999002787 -2.3210637586
O -1.8617956738 1.7362339767 0.3933377014
C -1.4735679878 1.8711621287 1.779661414
C -2.4445676311 1.2058978648 2.7303215712
O -3.6893084731 0.1284339631 0.144538069
C -4.6224680843 -0.7031433442 -0.5634209869
C -4.1845548858 -2.1530086509 -0.6177032389
H 4.5785181137 -1.3630885466 -1.7059689659
H 3.368354017 -0.3793083174 -2.5442922137
H 5.0872381432 -0.1129827263 -2.8568544043
H 4.0731130429 1.6309733615 -1.3407204622
H 5.4229570771 0.7462483333 -0.5694797299
H 1.2971055498 -0.8973964837 3.2749620654
H 2.4345991682 -1.6408130166 2.1156217448
H 4.1417354584 0.0775766897 2.6784127242
H 3.0161184941 0.8491479793 3.8011739864
H 3.6266354239 -0.7785952384 4.1411002746
H -0.3795004998 -2.6802399532 -1.2301270376
H -0.2132299139 -0.9609585357 -1.7337062661
H -0.4642924659 1.462900672 1.8894727148
H -1.4413503867 2.9528111765 1.9210635457
H -2.1412647735 1.418452432 3.7508212449
H -3.4495380591 1.5851586845 2.5643034699
H -2.4448519416 0.1278218485 2.5758988493
H -5.5512247258 -0.5831205357 -0.0039012868
H -4.7423235964 -0.3021921532 -1.5748747546
H -3.3038196252 -2.2481117464 -1.2513264471
H -3.9480588226 -2.5169058814 0.3788395477
H -4.9852225612 -2.7513067074 -1.0403930231
*
