! pbe def2-sv(p) def2/J RI DEFGRID1 loosescf d4 GCP(DFT/SV(P)) printgap
%output
    printlevel normal
end
* xyz 0 1
C 2.1003980552 -3.9287096648 0.3622778172
C 2.8233035143 -2.5980508324 0.2786452662
O 2.2874425334 -1.8546676076 -0.8329820923
C 2.1337541916 -0.557019701 -0.733659995
O 2.4102809869 0.1137274762 0.2422956744
C 1.5843847753 0.050394495 -2.0115260069
C 0.3750491662 0.941886805 -1.7132935532
H 0.2111358798 1.6339590576 -2.5424054306
C 0.57602073 1.7356483708 -0.4358215897
O -0.0988297898 1.5436161093 0.5607625634
O 1.4898696732 2.6512630088 -0.5676274189
C 1.8364268055 3.4472987119 0.5865454242
C 0.8337058084 4.5676028617 0.8061382483
S -1.172293974 -0.0086769137 -1.5749708834
P -1.5354242084 -0.3931697268 0.4935947171
S -0.2149817705 -1.1806629488 1.7103522475
O -2.4593921214 0.7425347918 1.1055626806
C -3.7217946754 1.1094542147 0.5186825031
O -2.7033436358 -1.4803664052 0.2093631262
C -2.4146105046 -2.8159864901 -0.1997088631
H 2.5688994375 -4.5417050807 1.1244561069
H 1.060977193 -3.7642207604 0.633909335
H 2.1468492209 -4.4380497483 -0.5952510022
H 3.8908844193 -2.7334305096 0.0854390486
H 2.6855528026 -2.0100354308 1.1909501667
H 1.3113345508 -0.738569976 -2.7106608884
H 2.3760812226 0.6689980738 -2.4395724158
H 1.8881088458 2.7830708185 1.4537691435
H 2.8267137975 3.8342980011 0.347906548
H 0.7499726866 5.1767287359 -0.0896321331
H -0.1424669993 4.1557586153 1.0529700153
H 1.1697474725 5.1870292979 1.6309888884
H -3.6051769156 1.2871630297 -0.5507213777
H -4.015923468 2.0214274178 1.0321941366
H -4.449266038 0.317067791 0.6851544036
H -3.3387385591 -3.3721243135 -0.0641589047
H -1.6242711054 -3.2339869083 0.4269808626
H -2.107887253 -2.8288841313 -1.2455529648
*
