! wb97x-v def2-tzvp def2/J RIJCOSX DEFGRID2 scfconv7 GCP(DFT/TZ) printgap
%output
    printlevel normal
end
* xyz 0 1
C 4.384391345864931 1.3973321541789883 -0.0005518842047163485
C 3.1011853207720828 1.937606134756929 0.00040164248982699376
C 2.001542114629927 1.0989937961419778 0.0013188843261910123
C 2.1702395283035276 -0.2794607498128995 0.0012887787299389539
C 3.4350257670941384 -0.8411388930324561 0.00025324274410084603
C 4.529926671386216 0.01661166257708096 -0.0006408402053374826
Cl 6.142751481565915 -0.6774552577749074 -0.001938157144344214
O 1.0881213699170285 -1.1468115957920133 0.0024188689298363666
C -0.15455671536476726 -0.5670700216687586 0.0014435921773315607
C -0.3245989310402477 0.8158479350981889 0.0013661645110158657
C -1.6055674088831662 1.3591552147659443 0.0003767382013928175
C -2.7272133099127553 0.5220505775866174 -0.00038143462504407536
C -2.5567170238370407 -0.8638976867176472 -0.00020973542557336302
C -1.2654386163111633 -1.4046106903547728 0.0006333883100811855
Cl -1.010786100446605 -3.1174299651605404 0.0007857277757380169
Cl -3.9307172612467998 -1.9158488658321218 -0.0010621899862837
Cl -4.3149947245678275 1.2098048571043951 -0.0015154715436799997
Cl -1.7719812861163449 3.082853186011509 0.0002220851628213179
O 0.7395820898033721 1.678426772599103 0.0023764061503790735
H 5.249286980838696 2.049304138189819 -0.0012423286425334397
H 2.9504188197213264 3.011594722551379 0.0004706520788532371
H 3.5429952787824095 -1.9194532821244774 0.00020493499879310553
*
