! pbe def2-sv(p) def2/J RI DEFGRID1 loosescf d4 GCP(DFT/SV(P)) printgap
%output
    printlevel normal
end
* xyz 0 1
C 3.0022008536 -1.873793967 -0.1966122453
C 1.711276515 -1.1503169091 -0.124075899
C 1.5436814494 0.1757309837 0.084831303
C 0.2388680273 0.814880538 0.1439568197
O 0.1550370284 2.0184485568 0.3407568692
N -0.863451196 -0.0225334523 -0.0346624432
C -0.7079071255 -1.3830848312 -0.2443801671
O -1.6253280463 -2.1715846234 -0.3994626581
N 0.5702040421 -1.8741321351 -0.2797456439
C -2.2888497527 0.4700311141 -0.0120388705
C -2.4292287951 1.975783601 0.2148322276
C -2.9257810427 0.1563451671 -1.3710273278
C -3.020829172 -0.2322816553 1.1375058827
Cl 2.8788138645 1.2562329479 0.3068990875
H 3.0986740068 -2.3618596326 -1.1636510958
H 3.0414256876 -2.6382257336 0.5759495364
H 3.8244964554 -1.1806251224 -0.0592401156
H 0.6316538346 -2.8758038047 -0.4371259929
H -3.4908214649 2.2096033231 0.2059247525
H -2.0178847886 2.2823657582 1.1715571884
H -1.9441025634 2.5510006573 -0.5677649427
H -3.9366834961 0.5509092211 -1.3876055136
H -2.9707009589 -0.9119885274 -1.5534037169
H -2.3545113148 0.6306592138 -2.1661327723
H -3.0683292164 -1.3049549811 0.9831464576
H -2.513888587 -0.0290439266 2.0783790957
H -4.0339422831 0.1519487073 1.1995387173
*
