  17
  -27.1962456300000       0.114196240624813      !md1
 C         -2.8195627789        1.0439877285       -0.0007497962
 O         -2.2173223048       -0.2363259241        0.0006234001
 C         -0.8559529153       -0.3188242881        0.0002761461
 C         -0.3258646995       -1.6110110887        0.0001107159
 C          1.0403088306       -1.7927256010       -0.0002323081
 C          1.9013400753       -0.7072359924       -0.0004241782
 C          1.3758642974        0.5769431754        0.0000077412
 C         -0.0029103700        0.7740601201        0.0002092162
 O          2.1609029882        1.6879228949        0.0002110350
 H         -2.5440901291        1.6085176153       -0.8951865332
 H         -2.5447512137        1.6099294064        0.8931084355
 H         -3.8906177123        0.8557963380       -0.0011297069
 H         -1.0070181900       -2.4460541131        0.0004654898
 H          1.4450399828       -2.7927465685       -0.0005019212
 H          2.9697455992       -0.8599652862       -0.0008392178
 H         -0.3633330139        1.7893154961        0.0004385836
 H          3.0979976816        1.4410545632       -0.0000381105
  17
  -27.1962455700000       0.114188990342447      !md2
 C         -2.8194138814        1.0440955108        0.0014953025
 O         -2.2173459066       -0.2363352243       -0.0010139645
 C         -0.8560091398       -0.3189154650       -0.0006593693
 C         -0.3258831312       -1.6110327549       -0.0002945804
 C          1.0403350026       -1.7927432360        0.0004616480
 C          1.9013537769       -0.7072210083        0.0007827234
 C          1.3758532723        0.5769664349        0.0000586747
 C         -0.0029148681        0.7739616579       -0.0005267086
 O          2.1608031750        1.6879816169       -0.0004025912
 H         -3.8906336073        0.8562597741        0.0010190412
 H         -2.5440494843        1.6111720300       -0.8913757297
 H         -2.5440305181        1.6073529774        0.8968042840
 H         -1.0069614728       -2.4461510303       -0.0003397185
 H          1.4450174350       -2.7928158198        0.0013507819
 H          2.9698196649       -0.8600767635        0.0016642635
 H         -0.3633967320        1.7892182483       -0.0009500275
 H          3.0979919051        1.4410915937       -0.0013892216
  17
  -27.1962454800000       0.114178115782628      !md6
 C         -2.8193514578        1.0441037343       -0.0027820355
 O         -2.2173520247       -0.2363261131        0.0021176265
 C         -0.8560146897       -0.3189441440        0.0011970234
 C         -0.3258885577       -1.6110631322        0.0001770314
 C          1.0403269219       -1.7927308705       -0.0009768120
 C          1.9013617079       -0.7072173013       -0.0010679572
 C          1.3758246085        0.5769605415        0.0001803518
 C         -0.0029314526        0.7739602306        0.0012808872
 O          2.1607949331        1.6879996124        0.0002887187
 H         -2.5460741560        1.6118386320        0.8903987711
 H         -3.8906496158        0.8563491886       -0.0047795046
 H         -2.5418187090        1.6067491732       -0.8978955154
 H         -1.0069718113       -2.4461800922        0.0001805888
 H          1.4450271490       -2.7927895410       -0.0019534888
 H          2.9698205439       -0.8600667502       -0.0020682619
 H         -0.3634050272        1.7892020844        0.0022663511
 H          3.0979846792        1.4410194956       -0.0006147036
  17
  -27.1961531500000       0.103550199921743      !md3
 C         -3.1842566882       -0.3313185408        0.0016782459
 O         -2.0887826761        0.5640969722       -0.0012517853
 C         -0.8239385468        0.0490729460       -0.0007173111
 C         -0.5142107576       -1.3050173161       -0.0002682457
 C          0.8160531021       -1.6959067187        0.0003035679
 C          1.8362235003       -0.7687378547        0.0004460321
 C          1.5259916653        0.5904775812       -0.0000562987
 C          0.2010927252        0.9938788361       -0.0006932712
 O          2.5518269768        1.4811256276        0.0002693189
 H         -4.0695267245        0.3005423701        0.0023890201
 H         -3.1789642499       -0.9583958127        0.8969503117
 H         -3.1820481756       -0.9606763629       -0.8919480526
 H         -1.2868641866       -2.0554261188       -0.0004273973
 H          1.0546761135       -2.7481856890        0.0004880530
 H          2.8717995482       -1.0668581128        0.0009219903
 H         -0.0692157925        2.0388793377       -0.0010617333
 H          2.2144271333        2.3897189623        0.0000284420
  17
  -27.1961531200000       0.103546912685417      !md3
 C         -3.1842658598       -0.3313087124       -0.0003364195
 O         -2.0887930843        0.5640761133        0.0004388501
 C         -0.8239376743        0.0491023011        0.0000656330
 C         -0.5141895304       -1.3050038821       -0.0004270262
 C          0.8160430526       -1.6959161928       -0.0003419079
 C          1.8362363619       -0.7687584599       -0.0000798794
 C          1.5260166156        0.5904303206        0.0001314628
 C          0.2011166404        0.9938804614        0.0002753551
 O          2.5518056965        1.4811679386        0.0003212246
 H         -3.1796795473       -0.9615804697        0.8926757137
 H         -3.1814952622       -0.9574145974       -0.8962667528
 H         -4.0694847207        0.3004975143        0.0020298665
 H         -1.2868797139       -2.0553712666       -0.0009514263
 H          1.0546966163       -2.7482206047       -0.0010091620
 H          2.8717908161       -1.0669095982       -0.0001864604
 H         -0.0690900672        2.0389203205        0.0005416654
 H          2.2141586697        2.3896119903       -0.0004047455
  17
  -27.1961530200000       0.103535955984130      !md3
 C         -3.1842414547       -0.3312858302        0.0024918681
 O         -2.0887392641        0.5641130425       -0.0014702557
 C         -0.8239450980        0.0490397954       -0.0013507552
 C         -0.5142327267       -1.3050592068       -0.0003806421
 C          0.8160286842       -1.6958990981        0.0005861751
 C          1.8362199442       -0.7687342014        0.0008467069
 C          1.5260258064        0.5904699897       -0.0003158542
 C          0.2010975042        0.9938234736       -0.0016251760
 O          2.5517846916        1.4811820819        0.0005087753
 H         -3.1817124083       -0.9621650026       -0.8899962057
 H         -4.0694416551        0.3006105197        0.0018634418
 H         -3.1792720086       -0.9567465145        0.8988497254
 H         -1.2868632619       -2.0554891841       -0.0002384996
 H          1.0547259334       -2.7481888802        0.0011815939
 H          2.8717561537       -1.0670132174        0.0021495636
 H         -0.0692495630        2.0388268892       -0.0022932853
 H          2.2143504820        2.3897330210        0.0007393107
  17
  -27.1956524600000       6.096067251187195E-002 !md5
 C         -3.1866980370       -0.3082329974        0.0002669904
 O         -2.0856289798        0.5808472990       -0.0001833041
 C         -0.8244558748        0.0589143298       -0.0001897634
 C         -0.5253118295       -1.2994992305       -0.0002955416
 C          0.7997948494       -1.7011034782       -0.0002085904
 C          1.8297588186       -0.7813656033        0.0000117828
 C          1.5309025013        0.5784119382        0.0001383235
 C          0.2077254725        0.9927194487        0.0000500763
 O          2.4961157469        1.5357688036        0.0002358792
 H         -3.1870018217       -0.9360081073        0.8950713731
 H         -3.1874262473       -0.9364799641       -0.8942235363
 H         -4.0678746020        0.3293044521        0.0003033955
 H         -1.3042961339       -2.0433339177       -0.0004130637
 H          1.0295290895       -2.7555671771       -0.0002940185
 H          2.8566486139       -1.1138865324        0.0000938660
 H         -0.0266133751        2.0445894263        0.0001567402
 H          3.3763869308        1.1295494468        0.0011724857
  17
  -27.1956523200000       6.095164202306396E-002 !md6
 C         -3.1866830995       -0.3080331769        0.0000554285
 O         -2.0856299128        0.5807950341       -0.0001403314
 C         -0.8244789668        0.0588592675        0.0000329061
 C         -0.5252341369       -1.2995290466       -0.0001566411
 C          0.7998665369       -1.7011308330       -0.0002816824
 C          1.8298177080       -0.7813626412       -0.0001260618
 C          1.5308406351        0.5783849839        0.0002018596
 C          0.2076651507        0.9926725326        0.0003605759
 O          2.4960729462        1.5357804645        0.0002341585
 H         -3.1867102093       -0.9370236454       -0.8939358704
 H         -4.0678037416        0.3295511931       -0.0014889441
 H         -3.1879514982       -0.9349734781        0.8954554220
 H         -1.3042370436       -2.0433965668       -0.0001129326
 H          1.0295578337       -2.7556142913       -0.0001450513
 H          2.8567575844       -1.1137364029       -0.0002901945
 H         -0.0266540803        2.0445526651        0.0007826173
 H          3.3761591897        1.1292539409       -0.0027838937
  17
  -27.1956522400000       6.094648234444271E-002 !md6
 C         -3.1865888525       -0.3083458723        0.0033178488
 O         -2.0856577237        0.5808493366       -0.0024648569
 C         -0.8244717106        0.0589707223       -0.0013800207
 C         -0.5253237879       -1.2994589060       -0.0004144338
 C          0.7997531703       -1.7010775272        0.0008383224
 C          1.8297374100       -0.7813541570        0.0011272883
 C          1.5308874870        0.5784270109       -0.0001630209
 C          0.2077176684        0.9927748738       -0.0014734480
 O          2.4961259464        1.5357298711        0.0000857414
 H         -4.0678506095        0.3289565218        0.0063875432
 H         -3.1830858376       -0.9352664136        0.8986686696
 H         -3.1908294015       -0.9373901900       -0.8905625488
 H         -1.3043700031       -2.0432268787       -0.0006808970
 H          1.0295192735       -2.7555451740        0.0017800864
 H          2.8566204615       -1.1139252283        0.0023815082
 H         -0.0266399051        2.0446367129       -0.0023872672
 H          3.3763366634        1.1294207293        0.0001025670
  17
  -27.1955492500000       5.465346705797439E-002 !mtd12
 C         -2.8306970821        1.0205570183        0.0002449357
 O         -2.2152944314       -0.2536416187       -0.0000555543
 C         -0.8525315806       -0.3260620827       -0.0001448603
 C         -0.3135421911       -1.6125473569       -0.0001390769
 C          1.0556141569       -1.7845790223        0.0000797232
 C          1.9063270188       -0.6942003942        0.0001811357
 C          1.3718072532        0.5885278641       -0.0000290478
 C         -0.0069246526        0.7757649827       -0.0001791643
 O          2.2335006604        1.6401959856       -0.0000441989
 H         -3.8997681686        0.8211936205       -0.0000503771
 H         -2.5638422710        1.5883688146       -0.8949772389
 H         -2.5640891752        1.5877661577        0.8959382629
 H         -0.9884976456       -2.4526344759       -0.0001745184
 H          1.4677920452       -2.7813685198        0.0002851421
 H          2.9774127141       -0.8126586889        0.0004505130
 H         -0.4025168891        1.7796295884       -0.0002147314
 H          1.7513103721        2.4810219697        0.0001638187
  17
  -27.1955492200000       5.465173206506856E-002 !mtd5
 C         -2.8308503317        1.0204594227        0.0013544116
 O         -2.2152705698       -0.2536070676       -0.0009782325
 C         -0.8524966396       -0.3260052135       -0.0005433917
 C         -0.3135471303       -1.6124968551       -0.0000862152
 C          1.0556036635       -1.7845652221        0.0004559569
 C          1.9063295044       -0.6942108749        0.0005167900
 C          1.3718355404        0.5885313850       -0.0000779190
 C         -0.0068780904        0.7758209932       -0.0005898102
 O          2.2335729853        1.6401471084       -0.0001390468
 H         -2.5633332624        1.5867281601        0.8973183482
 H         -3.8999496918        0.8208010480        0.0022202084
 H         -2.5652873386        1.5891342785       -0.8936906217
 H         -0.9884942655       -2.4525865264       -0.0000736969
 H          1.4677463415       -2.7813746981        0.0009698006
 H          2.9774183121       -0.8126517187        0.0010074788
 H         -0.4025118513        1.7796782598       -0.0010885803
 H          1.7513580543        2.4809515997       -0.0011994983
  17
  -27.1955490100000       5.463958865640130E-002 !md7
 C         -2.8306800518        1.0206046064       -0.0015685435
 O         -2.2152516618       -0.2535969813        0.0009662878
 C         -0.8525814338       -0.3260882118        0.0006909468
 C         -0.3135235455       -1.6125673369        0.0001979709
 C          1.0555693042       -1.7845427487       -0.0006313106
 C          1.9063883419       -0.6942075626       -0.0007412882
 C          1.3718798479        0.5884963999        0.0001074293
 C         -0.0069144526        0.7756481957        0.0007504058
 O          2.2334111954        1.6402676714        0.0000875341
 H         -2.5636587008        1.5863137031       -0.8981532452
 H         -2.5643274479        1.5896451585        0.8929613921
 H         -3.8998057375        0.8211501974       -0.0014586961
 H         -0.9883947300       -2.4527422861        0.0003551674
 H          1.4677871080       -2.7813172209       -0.0008965842
 H          2.9774513689       -0.8127103727       -0.0012200961
 H         -0.4024153352        1.7795771949        0.0013116640
 H          1.7508917175        2.4809578014        0.0046054009
