! pbe def2-sv(p) def2/J RI DEFGRID1 loosescf d4 GCP(DFT/SV(P)) printgap
%output
    printlevel normal
end
* xyz 0 1
C -0.19020011 2.6027661095 2.4403455686
C 0.7032682933 1.3819282853 2.5067718163
O 1.0301082688 1.0002385987 1.1547383886
P 1.6393108276 -0.418431393 0.8227849536
S 0.8917119241 -1.9812331003 1.754076247
O 3.1677046665 -0.1523378171 1.2022951134
C 4.1209429508 -1.2098133746 1.394724764
C 4.4225326563 -1.9555075111 0.1105634899
S 1.6153308896 -0.4127491418 -1.2796431549
C 0.3629246907 -1.6942045132 -1.5802004806
S -1.1863129198 -1.1006675728 -2.3369857745
P -1.84526826 0.32267849 -0.9071173262
S -3.6925512739 0.9006916807 -1.1958696033
O -0.7641050369 1.4770676631 -0.9124155499
C -0.6277128759 2.3408509664 -2.0591791015
C 0.3424984238 3.4426720972 -1.6870186875
O -1.475376509 -0.2961658123 0.5075277944
C -2.4606419465 -1.0566988633 1.2425491449
C -3.1407898179 -0.1856218416 2.2783666585
H -0.494036657 2.8827194714 3.4440075729
H 0.3440155942 3.4286033313 1.9799999007
H -1.0717238855 2.3820891095 1.8429586087
H 0.1987930514 0.5388885026 2.9922409165
H 1.6349925347 1.5930884486 3.0388919331
H 5.0039224061 -0.6983014749 1.780241132
H 3.7275800336 -1.8945786452 2.1530753434
H 4.6990171741 -1.2579902308 -0.6759575085
H 5.2401147371 -2.6480311607 0.2832817699
H 3.5464178664 -2.5181526268 -0.2088090658
H 0.1462744008 -2.1994542513 -0.6356776372
H 0.7675848474 -2.3890250267 -2.3119885432
H -0.2508727699 1.7475299053 -2.8989501006
H -1.6158309646 2.7369585058 -2.3166095598
H -0.0607053014 4.0356525726 -0.871329146
H 1.2870070356 3.0061854397 -1.3728149888
H 0.5071437367 4.0795160941 -2.5497584722
H -3.1940006334 -1.4686536287 0.5423871682
H -1.899510249 -1.870360865 1.7085750933
H -3.6801846237 0.6223596843 1.7879309826
H -3.8433852862 -0.7905446063 2.842448954
H -2.4054376599 0.2377213537 2.9568728777
*
