! r2scan-3c def2/J RI DEFGRID2 scfconv6 printgap
%output
    printlevel normal
end
%cpcm
    smd true
    smdsolvent "water"
end
* xyz 0 1
C 0.947783268 1.6239457869 -1.772926596
C 2.0525816113 1.7656497503 -1.0572786793
C 2.4285552345 0.5171764082 -0.329364483
H 2.620203673 0.6621199208 0.7332848564
C 1.2825568522 -0.4612314817 -0.6200866581
H 1.6589889161 -1.4081413551 -1.0039018301
C 0.3429407086 0.2622697324 -1.6209015153
H 0.2345375618 -0.2547542917 -2.5743006719
C -1.0239156957 0.2630664781 -0.8755085515
C -0.8782345952 1.1951397661 0.3107998998
C -0.0528578735 0.5983559916 1.1811947299
C 0.347799167 -0.7365699667 0.5841640806
C -0.9672667512 -1.0974846615 -0.1459087192
Cl -2.3302979324 -1.3580252285 0.9608895726
Cl -0.8531134431 -2.4887273376 -1.2135464393
Cl 0.9470239019 -1.9203638331 1.7346519373
Cl 0.5344424023 1.1773367096 2.6592671255
Cl -1.5856194687 2.7259504862 0.3903138372
Cl -2.4302020376 0.5421924428 -1.8838733998
Cl 3.9818136489 -0.1238850654 -0.997857867
H 0.4882137991 2.3700446888 -2.3935674335
H 2.6735761506 2.6400952182 -1.0065239698
*
