! pbe def2-sv(p) def2/J RI DEFGRID1 loosescf d4 GCP(DFT/SV(P)) printgap
%output
    printlevel normal
end
* xyz 0 1
C 3.0194762047 0.4843010248 -2.6171662669
C 2.3065368978 -0.8305914575 -2.3833900505
O 1.4312902995 -0.7793512282 -1.2323182145
P 1.9369303047 -0.5050596661 0.2435589702
S 2.3715723402 1.3215055654 0.825436521
O 3.1495555528 -1.5333955027 0.3206682382
C 4.036846835 -1.5851568703 1.4558244414
C 5.3243069841 -0.8413862237 1.1582006848
S 0.4298203559 -1.4550016175 1.3851823744
C -0.3371268007 -0.0189407881 2.2036673869
S -2.1203157034 0.1066863539 1.914749684
P -2.123548655 0.3846553341 -0.1703631871
S -0.7577474019 1.5479900334 -0.9745975974
O -3.6198424446 0.816615465 -0.4862320285
C -4.042929491 2.1903984417 -0.5100252876
C -4.0101319612 2.8225932123 0.8664095799
O -2.1180665755 -1.1308312013 -0.6301946937
C -1.7936950416 -1.5429577269 -1.9719538722
C -2.8298248234 -1.0813718687 -2.9749001298
H 3.7065545681 0.6905301887 -1.7976219719
H 3.5773418455 0.4351591571 -3.5468313036
H 2.2967176743 1.2966620367 -2.6706234778
H 3.0170719744 -1.6464193668 -2.2355699475
H 1.630907228 -1.0682721235 -3.2072283088
H 3.5344969676 -1.1579613018 2.3277994729
H 4.2171995749 -2.6486289032 1.6217170542
H 6.0029144356 -0.9529058604 1.9974942178
H 5.7908959994 -1.2414164955 0.2623954063
H 5.1178073166 0.2163346367 1.0090159641
H 0.1699113233 0.886246296 1.8543822717
H -0.2248277812 -0.1373728957 3.2783814241
H -3.3941534316 2.7398291716 -1.2000844977
H -5.0571588064 2.1442008232 -0.9088350106
H -2.9801841439 2.9162456524 1.2088453191
H -4.4556959456 3.811078672 0.8188066647
H -4.5596094957 2.2099431599 1.5766410908
H -0.8050419741 -1.1455337625 -2.2215690576
H -1.7473716195 -2.630839869 -1.9030979248
H -3.8213110096 -1.3947684822 -2.6588115421
H -2.811828893 0.0051457739 -3.0527332881
H -2.6060366722 -1.5096774362 -3.9470029042
*
