! r2scan-3c def2/J RI DEFGRID2 scfconv6 printgap
%output
    printlevel normal
end
* xyz 0 1
C 4.0126797515 -0.2471447825 -2.4036426099
C 3.6894264091 -1.7211738059 -2.2205279085
O 2.4850552518 -1.8713188312 -1.4467980335
C 2.5851863187 -2.1312508551 -0.1548274958
O 3.6194808851 -2.3603736629 0.4285261235
C 1.2155726193 -2.1919001782 0.5018209338
C 0.4048276318 -0.9509216403 0.1500601937
H 0.2604870683 -0.8911852263 -0.9370165566
C 1.1391976767 0.3144053235 0.553993635
O 2.3410058514 0.4230705579 0.4730308884
O 0.3182923622 1.2631665567 0.9497010346
C 0.8648449991 2.5428755494 1.3289127186
C 1.2122772812 2.5579549458 2.8076693679
S -1.2508326111 -1.0259738537 0.9081305202
P -2.1413281862 0.5882377482 -0.1612011899
S -1.2931863579 1.096623091 -1.8516298664
O -3.6533592401 0.0798852884 -0.3148648868
C -3.9855191196 -1.0148196631 -1.175152266
O -2.3625137673 1.8039421891 0.8209995374
C -3.0304018988 1.6502133055 2.0892988052
H 4.1429867603 0.2233532593 -1.4312151871
H 4.9270110007 -0.1441730151 -2.9781946065
H 3.1997925255 0.2532461572 -2.9239335322
H 4.5013774901 -2.2390469311 -1.7023977782
H 3.4759588788 -2.2037524666 -3.175304532
H 1.3549389296 -2.2766195868 1.5796388414
H 0.6962941518 -3.0789129968 0.13635831
H 1.7476710606 2.7343224408 0.7130942835
H 0.0740702532 3.2548571652 1.0891655163
H 1.5582146978 3.5493269701 3.0803745816
H 0.3388728331 2.3062771049 3.4029578251
H 2.0028449599 1.8394323124 3.0130446756
H -3.5383160828 -0.8682473757 -2.1596206592
H -5.0700537475 -1.0121809536 -1.2475960189
H -3.6316756049 -1.9490625296 -0.7394672612
H -2.547884322 0.8649484271 2.6713182844
H -4.0780260217 1.4038950832 1.9287465967
H -2.9315687775 2.6138684887 2.5822295762
*
