! pbe def2-sv(p) def2/J RI DEFGRID1 loosescf d4 GCP(DFT/SV(P)) printgap
%output
    printlevel normal
end
* xyz 0 1
C 1.8797828548 -2.1059254224 -2.2374363475
C 2.2774324363 -0.6600271295 -2.4499571078
O 1.8080590853 0.2205321932 -1.3957261796
P 2.1393596879 0.0544401745 0.1371265115
S 2.0788330859 1.7337159578 1.143079347
O 3.5588409525 -0.6607806463 0.0686368657
C 4.310590882 -0.9912196443 1.2528600025
C 5.3139218943 0.0969771153 1.5807944149
S 0.8911471215 -1.4878369433 0.9291474826
C -0.214865164 -0.5241608542 2.0010875299
S -1.9637622835 -0.8363092147 1.6634252651
P -2.1624790942 0.1650403414 -0.1764456569
S -1.0421691503 1.75392456 -0.4967111351
O -3.7348532927 0.3482908667 -0.3178780023
C -4.6057502522 0.9178939895 0.6758283829
C -4.1216185781 2.2584590298 1.1880339151
O -1.8927990135 -1.0068306768 -1.2128820128
C -1.6344852706 -0.7429194453 -2.6059692823
C -2.8497717508 -0.1745702435 -3.3070940421
H 2.1577091653 -2.6791081259 -3.1164321358
H 2.3905708312 -2.5176488629 -1.3693846638
H 0.8079602164 -2.1905855392 -2.078233991
H 1.8142358537 -0.2404793375 -3.3448578188
H 3.3623740486 -0.5596026308 -2.5124132723
H 3.6198757655 -1.1513462116 2.0852123394
H 4.810672153 -1.9304273553 1.0082064423
H 5.9026724663 -0.20697592 2.4401443291
H 5.9731006579 0.2660875783 0.7339262786
H 4.7979721703 1.0259427314 1.8133266613
H 0.0151655442 0.5377147093 1.8670523419
H -0.0546607491 -0.8321888122 3.0312229042
H -5.5609359529 1.0117270872 0.1559959937
H -4.6981379723 0.2007785736 1.4960987448
H -3.9709520202 2.9504757777 0.3625381069
H -4.8554763664 2.6704389212 1.8731710949
H -3.1738897639 2.1412373382 1.712863578
H -0.7905563793 -0.0477723308 -2.6748055668
H -1.3569389419 -1.7170796751 -3.0113495989
H -2.6408281735 -0.0755135732 -4.3678067687
H -3.7054378889 -0.8286031526 -3.1627906215
H -3.0845791188 0.8067998416 -2.8966005866
*
