! r2scan-3c def2/J RI DEFGRID2 scfconv6 printgap
%output
    printlevel normal
end
* xyz 0 1
C -2.5603590926 0.6023237791 -0.0036295454
C -1.2167807897 -0.0620783726 -0.0003066934
C -1.1358256172 -1.4470503063 -8.77744e-05
C 0.0923415542 -2.0826809439 0.0023981274
C 1.2491467975 -1.3327577129 0.0016650973
C 1.18471437 0.0577155856 -8.97427e-05
C -0.0506269354 0.7115836833 0.002227124
C -0.1737179146 2.2098857048 0.0052000921
O 2.3871320883 0.7061133091 -0.0047888749
H -2.6854094223 1.2228527031 0.8824285503
H -2.6708982676 1.2430593056 -0.87694782
H -3.3516312181 -0.1418565855 -0.0179693072
H -2.0429733925 -2.0330020778 -0.0016585682
H 0.1494718471 -3.1604942384 0.003459646
H 2.2235896831 -1.7958682134 0.0012769945
H 0.7857509549 2.7181048736 0.0496846202
H -0.6887982195 2.5440794909 -0.8946740259
H -0.7605129203 2.5328885069 0.8638249541
H 2.2642828517 1.6664336358 -0.021313363
*
