! r2scan-3c def2/J RI DEFGRID2 scfconv6 printgap
%output
    printlevel normal
end
%cpcm
    smd true
    smdsolvent "water"
end
* xyz 0 1
C 1.4904897177 0.2689643313 -3.6044022512
C 2.3654851695 0.1846891296 -2.3717016608
O 1.623066344 -0.494165991 -1.3295635508
P 2.1219890077 -0.4043211708 0.1726448744
S 2.5584569962 1.3735058695 0.8853118882
O 3.383046167 -1.3771059389 0.0995563174
C 4.3985296969 -1.4036419957 1.1167563535
C 3.8698278493 -1.9198542309 2.4393316815
S 0.6284192304 -1.5281218367 1.1436189881
C -0.1146240818 -0.22789701 2.1924972365
S -1.9173235231 -0.1583603958 2.0560227668
P -2.0688552093 0.3064851517 0.0053027438
S -0.7480482767 1.5842667246 -0.6968569942
O -3.5966881097 0.7126329657 -0.1430455063
C -4.1357506954 1.9432336602 0.3799340074
C -4.1264136279 3.0327961585 -0.6751728278
O -2.0783559672 -1.1352482031 -0.6387768554
C -1.6929277495 -1.3978290444 -2.003009013
C -2.6332694333 -0.7319216325 -2.9844998797
H 0.5947146218 0.8435062751 -3.3817836305
H 2.0432521727 0.7662241879 -4.394755766
H 1.2072661314 -0.7270441703 -3.9325925177
H 2.6328815676 1.183088589 -2.008135422
H 3.2775512852 -0.3870603174 -2.56035224
H 5.1650906295 -2.0601997656 0.7032190969
H 4.7954425451 -0.3899989109 1.2321045755
H 3.1573987309 -1.2078371344 2.8544800198
H 3.372451807 -2.8765204559 2.3010770817
H 4.6948593369 -2.0373235549 3.1344502637
H 0.3234405869 0.7348255807 1.9131258592
H 0.0899727047 -0.463138962 3.2338935866
H -5.1539141666 1.6883793828 0.679674293
H -3.5623065932 2.2438815943 1.2615018657
H -3.1047228993 3.2654072366 -0.9678745931
H -4.6780550865 2.7081033786 -1.5529609116
H -4.5894559105 3.9266651789 -0.2699502448
H -0.6650165765 -1.0512477609 -2.1442848136
H -1.7275282423 -2.4858070011 -2.0748746042
H -2.5714900286 0.3504906246 -2.8730839623
H -2.3523221085 -1.0012383335 -3.9978435631
H -3.6564047573 -1.0448915542 -2.7936987083
*
