! pbe def2-sv(p) def2/J RI DEFGRID1 loosescf d4 GCP(DFT/SV(P)) printgap
%output
    printlevel normal
end
* xyz 0 1
C 2.4483507175 0.063062161 -2.9296730821
C 3.4480095746 0.3249208149 -1.8214538421
O 3.2127016845 -0.5169921481 -0.6824240961
P 1.9559367476 -0.3356572274 0.2748897422
S 1.5662870777 1.5469509023 0.6895131069
O 2.3299780181 -1.2322110693 1.5245605573
C 2.9908618013 -0.692236988 2.6874994065
C 4.4323900826 -0.3346857966 2.3941025645
S 0.5439816603 -1.6492399462 -0.5939295824
C -0.5511697575 -1.9154201067 0.8305147408
S -1.2366840056 -0.3857162979 1.5307580402
P -2.1429616227 0.4105108699 -0.2101247571
S -1.1371924512 1.2517211366 -1.6742769655
O -3.2462454614 1.3768856704 0.4074022679
C -3.0024540803 2.7686488194 0.6647151469
C -2.0214244693 2.968406017 1.8023566811
O -3.0138341012 -0.842972472 -0.6190524585
C -3.3386858867 -1.2040802231 -1.9801729864
C -2.7413483752 -2.5593289157 -2.3035612974
H 2.7269297515 0.6311616531 -3.8112959378
H 2.4229380463 -0.9962055237 -3.1730820003
H 1.4507897125 0.3754837114 -2.6178228008
H 3.3994789798 1.3707541753 -1.4993513395
H 4.4650352845 0.0759212855 -2.1275214901
H 2.4338704868 0.187733585 3.0251961832
H 2.9130528306 -1.4899448661 3.4272410583
H 4.9222361134 -0.0285264113 3.3130612962
H 4.953061253 -1.1896450988 1.9709745116
H 4.4704088156 0.4881794903 1.6813611949
H 0.0030328602 -2.395101071 1.6338785784
H -1.3612794049 -2.5489168002 0.475775867
H -2.6260288313 3.2320107045 -0.2535325448
H -3.9882762467 3.1682552139 0.9062866992
H -2.3477789753 2.421711588 2.68374269
H -1.0326383888 2.6088787595 1.5135824292
H -1.9486158537 4.0253098952 2.0374858691
H -4.4285547639 -1.2220217234 -2.0297903553
H -2.9514540606 -0.4338279567 -2.654972651
H -1.6551536244 -2.5154854175 -2.241724966
H -3.1092494605 -3.308070756 -1.6075958245
H -3.0272829731 -2.8389993496 -3.3122038187
*
