! r2scan-3c def2/J RI DEFGRID2 scfconv6 printgap
%output
    printlevel normal
end
%cpcm
    smd true
    smdsolvent "water"
end
* xyz 0 1
C -1.9187029864 9.48e-07 -2.6385e-06
I 0.2352248338 2.836e-07 3.05e-08
H -2.2506771791 -1.0016998984 -0.2393174587
H -2.2507518346 0.293560143 0.9871425548
H -2.2507769064 0.7080927444 -0.7477974987
*
