! pbe def2-sv(p) def2/J RI DEFGRID1 loosescf d4 GCP(DFT/SV(P)) printgap
%output
    printlevel normal
end
* xyz 0 1
C 3.757220358 -2.0053895066 1.744386138
C 2.3582979283 -2.0691545715 1.1664626047
O 1.861227906 -0.7510291661 0.8625775502
P 2.4035447853 0.0829548406 -0.3915692055
S 3.0395821318 -0.9905153875 -1.8935552896
O 3.5153028878 1.0716580358 0.147036209
C 3.3035940547 1.9299664832 1.2979281336
C 4.6640170831 2.3260988972 1.8329687653
S 0.7288925633 1.3315831242 -0.7391697014
C -0.2239582663 0.091452395 -1.6542976261
S -1.0573310305 -1.096100174 -0.5844074599
P -2.6971999166 0.1717006277 -0.0529851588
S -3.2503241763 1.4556088532 -1.4212855413
O -2.3092236231 0.9476807189 1.2604340742
C -1.9153195719 0.306491269 2.5011718502
C -0.5333157473 0.7845580254 2.8975956658
O -3.7698995377 -0.860347239 0.5045117211
C -4.2174585189 -2.0505936244 -0.171440394
C -4.7339677376 -1.7735732689 -1.5674397375
H 4.0924992825 -3.0080243437 1.9899864768
H 4.4370740852 -1.5764582904 1.0080223426
H 3.7715242176 -1.3914799417 2.6412844886
H 1.6363302493 -2.4691509229 1.8791808554
H 2.3442949831 -2.6660982069 0.2495722764
H 2.7332529118 2.7997956195 0.9630521037
H 2.7221265851 1.3831067295 2.0442365736
H 5.2336705381 2.8327504024 1.0593368453
H 4.5327274832 2.9937005177 2.678355582
H 5.2152690337 1.4455711308 2.1509217904
H 0.4502807137 -0.4695855862 -2.3028622363
H -0.9748232063 0.6349185147 -2.2311360786
H -2.6662543728 0.6041974215 3.2349062477
H -1.9415789473 -0.7778775898 2.3705719949
H -0.2884130176 0.3908274057 3.8789188417
H 0.2054380521 0.4398751947 2.1784431377
H -0.5118636284 1.8704528382 2.9269581454
H -3.3853038918 -2.7594794472 -0.2010729225
H -5.0078313519 -2.4305027322 0.4783275141
H -5.5124656212 -1.0147447932 -1.5408520716
H -3.9264983386 -1.4129580932 -2.203300767
H -5.1364158804 -2.6878919476 -1.9914488267
*
