  23
        -26.46567618
 C         -6.0924175549       -1.0759523449        0.1941703005
 C         -5.0955190013       -0.0725034224       -0.3734102340
 C         -3.7137765807       -0.2257118739        0.2583202905
 C         -2.7099738763        0.7766786587       -0.3061482839
 C         -1.3309919880        0.6202875168        0.3298588315
 C         -0.3249299443        1.6150429705       -0.2418018616
 C          1.0407119489        1.5234387491        0.4039517889
 I          2.0664699913       -0.3483351524       -0.0327545271
 H         -7.0680131425       -0.9494415907       -0.2685358443
 H         -5.7541902805       -2.0933760491        0.0112222308
 H         -6.2005845872       -0.9397457266        1.2678840251
 H         -5.4615645844        0.9416661557       -0.1978668863
 H         -5.0149421762       -0.2125578257       -1.4536977097
 H         -3.3485096855       -1.2403612032        0.0829970579
 H         -3.7952024175       -0.0866901487        1.3390185118
 H         -3.0768807258        1.7911451591       -0.1327986557
 H         -2.6281291816        0.6344907107       -1.3862269802
 H         -0.9738815636       -0.3981641851        0.1584573717
 H         -1.4119839834        0.7658239796        1.4100257495
 H         -0.6902941166        2.6319832242       -0.0711347491
 H         -0.2400729973        1.4715306398       -1.3212390197
 H          0.9751220278        1.5694345720        1.4877149986
 H          1.7076002906        2.3005518206        0.0410342970
