! pbe def2-sv(p) def2/J RI DEFGRID1 loosescf d4 GCP(DFT/SV(P)) printgap
%output
    printlevel normal
end
* xyz 0 1
C 2.552754961 0.6798506142 -2.6969795356
C 1.7212739245 1.5078375467 -1.7412932886
O 1.2460781325 0.7248964178 -0.6302884424
P 2.1950309813 0.295408049 0.564738046
S 3.5306561605 1.6151270275 1.1155793754
O 2.7907681252 -1.0899788726 0.0380859557
C 3.9715929072 -1.6706904687 0.6172345076
C 3.7155231834 -2.2062701864 2.0116222814
S 0.7269795082 -0.2263466466 1.9742975798
C -0.1368853867 -1.5599749191 1.0507271279
S -1.9194244857 -1.310641121 1.0369468857
P -2.0168964739 -0.0351350717 -0.670615735
S -1.0621228141 -0.6568501097 -2.2583692991
O -1.4794989984 1.3811905244 -0.2248266886
C -2.0050430718 2.116491545 0.905277865
C -2.9722121157 3.1862183908 0.4424203028
O -3.5778738642 0.2319376279 -0.8014763732
C -4.5952699312 -0.7877038336 -0.7918688179
C -4.3645386774 -1.8602281058 -1.8351678677
H 3.4680063043 0.3501095571 -2.2084470967
H 1.9847649289 -0.1902228666 -3.0190349563
H 2.8081458601 1.2830296355 -3.562412306
H 0.806026008 1.8673610338 -2.21524454
H 2.2959732456 2.3520778202 -1.3460030459
H 4.244035047 -2.4651225406 -0.0788174262
H 4.7557046024 -0.906995707 0.639629586
H 4.6180037895 -2.6809404704 2.3831258602
H 3.4476014974 -1.3881513804 2.6800423344
H 2.9074865533 -2.9330499171 1.9996084238
H 0.0415348195 -2.4966601399 1.5713131204
H 0.2328750698 -1.5867353524 0.0250076839
H -2.4867318522 1.4179258328 1.5958366754
H -1.125981476 2.5518616416 1.38684664
H -3.3129643002 3.7519257013 1.3039328668
H -2.4797835774 3.8575387174 -0.2558298419
H -3.8264806777 2.7314563354 -0.0520872055
H -4.6300315929 -1.2241637611 0.2100563013
H -5.5148922223 -0.2334954868 -0.9879799862
H -3.4542195046 -2.4141301956 -1.6112514309
H -5.205110764 -2.5465767193 -1.8368384404
H -4.2611171249 -1.4147052512 -2.8218276688
*
