! pbe def2-sv(p) def2/J RI DEFGRID1 loosescf d4 GCP(DFT/SV(P)) printgap
%output
    printlevel normal
end
* xyz 0 1
C 5.2908442693 -2.5151955921 -0.5848281612
C 4.6125776316 -1.411493259 0.211213644
O 3.178248217 -1.5411080549 0.1569149926
C 2.5393197274 -1.0007604659 -0.8587656129
O 3.0632435299 -0.3733835595 -1.752526773
C 1.0467399752 -1.2702388162 -0.7786371694
C 0.2860532509 -0.0338327901 -1.2439740231
H 0.7257957277 0.3137566091 -2.1865655185
C 0.3652672783 1.1068277914 -0.2517302525
O -0.5875788491 1.8193181252 0.0014543705
O 1.5512758665 1.2212841256 0.2770858881
C 1.7718602087 2.2747210001 1.2408949499
C 2.08841367 3.5897478985 0.5496334169
S -1.4669232894 -0.3541272807 -1.6220433667
P -2.3695734854 -0.0868827161 0.2796823227
S -1.30987016 -0.4463033113 1.9002007927
O -3.2935855933 1.1997320277 0.2565721558
C -3.1303716998 2.3668816662 1.064904215
O -3.5921330669 -1.1060571625 0.1246366195
C -3.3765925949 -2.5200420591 0.0802054642
H 5.0444091761 -2.4207590809 -1.6398574648
H 6.3662406064 -2.4341241466 -0.4658164709
H 4.9631551662 -3.4881882476 -0.2294227747
H 4.8870607665 -0.4276786709 -0.1794764993
H 4.8515222428 -1.4823962754 1.2723119242
H 0.7831823583 -1.5491773352 0.2422334728
H 0.8163851155 -2.1005166897 -1.4489679335
H 0.8787326504 2.3595783937 1.8663235497
H 2.6143566862 1.9188545216 1.8335061334
H 2.3254012476 4.3375678936 1.2989645168
H 2.93788563 3.4656047317 -0.1166654103
H 1.2316094622 3.9277982708 -0.0286456868
H -2.5526890223 2.1335176647 1.9611175153
H -4.1348017109 2.6860127297 1.3342894194
H -2.6177330443 3.1341296272 0.4878395986
H -2.7343709044 -2.8278271663 0.9077646885
H -2.9234069849 -2.8015128944 -0.8704747683
H -4.3621372761 -2.9674638598 0.1802007774
*
