! r2scan-3c def2/J RI DEFGRID2 scfconv6 printgap
%output
    printlevel normal
end
%cpcm
    smd true
    smdsolvent "water"
end
* xyz 0 1
C 5.2663206544 -2.2682936505 -1.3179087373
C 4.2963351009 -1.1067187346 -1.3956994304
O 3.2174857212 -1.3674856069 -0.4750465613
P 2.2575214716 -0.2089320787 0.0291311252
S 3.1598041561 1.4187457502 0.6548892348
O 1.358186879 -0.9669411914 1.0860074053
C 1.6796013146 -0.9494449308 2.4960200065
C 2.9402049791 -1.7345943779 2.7880068883
S 0.9126448735 0.0375140823 -1.5853185165
C 0.2492354103 1.6367205013 -1.0462501425
S -0.7764894515 1.5024255488 0.4345483498
P -2.3321942528 0.3403850922 -0.4675797061
S -2.6905041117 0.745146095 -2.3446285943
O -3.5417416789 0.5700916977 0.5346601357
C -4.2343474677 1.8357379671 0.583757344
C -5.5224802764 1.6291250016 1.35409837
O -1.9672127479 -1.1711430194 -0.2313059684
C -1.8021404295 -1.7505878627 1.0871793523
C -3.0610809406 -2.4794604872 1.5078972736
H 6.0713544791 -2.1068918252 -2.0272166952
H 5.6807794048 -2.3451756407 -0.3168100721
H 4.7535052863 -3.1946383581 -1.5596306628
H 3.8727317898 -1.0055302373 -2.3986916252
H 4.7751871809 -0.1628455672 -1.1134065568
H 1.7873631933 0.0928099941 2.8125591978
H 0.8046424461 -1.3939683326 2.9714752958
H 3.7941460972 -1.2457800133 2.3204535941
H 3.1002794469 -1.7741917949 3.8608661134
H 2.8546984081 -2.7440102018 2.3946407978
H -0.3532959909 2.016653795 -1.871089922
H 1.0707680338 2.3106284336 -0.8024681931
H -3.583061706 2.5619711903 1.0775214864
H -4.4264664415 2.1655896069 -0.4422729664
H -6.0569220224 2.5716249435 1.4104826978
H -6.1449857679 0.8947407654 0.8507285127
H -5.3038535217 1.2797741644 2.3589646665
H -0.9559890769 -2.4324532416 0.9810672543
H -1.5488298343 -0.9537214686 1.7923224664
H -3.8879491178 -1.7796322237 1.594160452
H -3.3166156438 -3.2347997996 0.7699762316
H -2.8920054088 -2.9572819031 2.4678350686
*
