! r2scan-3c def2/J RI DEFGRID2 scfconv6 printgap
%output
    printlevel normal
end
* xyz 0 1
C 4.5577420472 -2.2501188985 0.316084288
C 4.1070863434 -2.0561573368 -1.1172597509
O 2.710969499 -1.7050879617 -1.2047181699
P 2.1412985075 -0.3500823619 -0.6111168134
S 3.3011652165 1.2298975067 -0.6973399546
O 1.671921929 -0.7553808675 0.8546774346
C 1.8614573884 0.0473166633 2.0382971409
C 0.7433954837 -0.2516351918 3.0152013841
S 0.4131055358 -0.3279591397 -1.8297308154
C -0.0038328643 1.4149020166 -1.5611970425
S -0.4853649516 1.7440178266 0.1532327798
P -2.1662580828 0.4506137235 0.1697586644
S -3.2386181555 0.4348685192 -1.4753277651
O -2.9347682119 0.9073443792 1.4791344097
C -3.6884582047 2.1374547613 1.5205807231
C -4.5967758099 2.0826732904 2.7320285729
O -1.6020194678 -0.9365657246 0.6687622006
C -1.9607163268 -2.2135403017 0.094914338
C -0.7891352742 -3.1593016658 0.2585804629
H 4.5262456409 -1.2972158747 0.8442392691
H 3.9085605752 -2.9599677641 0.8222502936
H 5.577595313 -2.6221003366 0.3255085876
H 4.1789282634 -2.9792870789 -1.6938779757
H 4.6915281966 -1.2679981672 -1.6019739682
H 2.8319881506 -0.2222340978 2.4631186066
H 1.879076943 1.1050381452 1.7592863557
H 0.7355118167 -1.3098991886 3.2587094791
H 0.9034374077 0.3260758702 3.9196521644
H -0.2201118933 0.015348352 2.5877106399
H -0.8366667301 1.6446093572 -2.225259678
H 0.8619394704 2.0419820359 -1.773516475
H -2.982149356 2.9695450696 1.5865084542
H -4.2611801684 2.2258375207 0.5913573364
H -5.2841712728 1.2460770461 2.6454287154
H -4.0040135202 1.9597127101 3.6335511211
H -5.1621300402 3.0065817062 2.7949455035
H -2.8401922876 -2.5765024571 0.6317493219
H -2.21784104 -2.0694610392 -0.9598212498
H 0.0785411026 -2.7889253798 -0.2830163872
H -0.5319173958 -3.2522014414 1.3094927347
H -1.0640279941 -4.1325218366 -0.1348728181
*
