! pbe def2-sv(p) def2/J RI DEFGRID1 loosescf d4 GCP(DFT/SV(P)) printgap
%output
    printlevel normal
end
* xyz 0 1
C 3.8607914444 1.4486886584 -2.0005141893
C 2.5710556542 0.701809423 -2.2643442919
O 2.3747543708 -0.3823543047 -1.3369707131
P 2.1172375055 -0.162229207 0.2097039936
S 1.0212979765 1.3957918613 0.7052822045
O 3.5909181549 -0.1020112088 0.7989277824
C 3.8744228003 0.3839219939 2.122661152
C 3.3189362269 -0.5307023976 3.1948864196
S 1.5237877292 -2.1170158461 0.7204999216
C -0.1635249518 -2.1757704071 0.0581071348
S -1.3442981596 -1.1662502501 1.0100274052
P -1.9356057445 0.1755935434 -0.4996600432
S -0.909250715 0.2502038445 -2.1633922853
O -2.1417936605 1.6243080772 0.10762438
C -2.9903543055 1.9151405612 1.2459186781
C -2.2181047903 1.8435530804 2.5478644692
O -3.4104032302 -0.4221747368 -0.7019161833
C -4.2516794482 0.0286760386 -1.7834072513
C -5.4213033309 -0.9282051008 -1.8885608177
H 4.6949735035 0.7528570977 -1.9662848576
H 4.0223329595 2.1729094796 -2.7928235197
H 3.798117705 1.9732874326 -1.0479526502
H 2.5724502049 0.2104795067 -3.2383995091
H 1.7080915653 1.3730648372 -2.2029056043
H 4.9635553841 0.4324545911 2.1552944447
H 3.4510698562 1.3890610176 2.2188017957
H 3.6495984557 -0.1854955803 4.169167981
H 2.2298537607 -0.5170688417 3.1655290504
H 3.6594009812 -1.5506115084 3.0351675849
H -0.4718061262 -3.2146813987 0.1375957575
H -0.1636123628 -1.8347121491 -0.980145838
H -3.33890576 2.9311187092 1.0508694828
H -3.8350855622 1.2206718126 1.247812206
H -1.2967062111 2.4146724332 2.4601621788
H -2.8268875534 2.2590481396 3.34456835
H -1.9644689867 0.8144204734 2.7915423668
H -4.5833263942 1.0490588621 -1.568119121
H -3.6565982196 0.0404811849 -2.7030122628
H -5.9774284682 -0.9404993327 -0.9557488209
H -6.0730684352 -0.6059184891 -2.6939950993
H -5.0611094518 -1.9316069381 -2.0959063712
*
