! pbe def2-sv(p) def2/J RI DEFGRID1 loosescf d4 GCP(DFT/SV(P)) printgap
%output
    printlevel normal
end
* xyz 0 1
C 1.7685855877 -3.0368324092 -1.2799018091
C 3.0807340007 -2.6519070928 -0.6315366516
O 3.356559908 -1.2319440248 -0.7252221417
P 2.4297722907 -0.0777103862 -0.1776904628
S 3.4163290184 1.5671861611 0.1977569344
O 1.7025924163 -0.7452374947 1.0739637695
C 1.4892441207 -0.0949440621 2.3384927405
C 2.3729198077 -0.7357797057 3.3903107274
S 0.9613750315 0.1139566875 -1.7138148861
C 0.3951202075 1.7771123431 -1.2991433093
S -0.4222818762 1.8468693097 0.3181556269
P -1.929005035 0.416631065 -0.1038486968
S -2.6691816346 0.5195210268 -1.9216410501
O -2.9942411302 0.6229336924 1.0551169228
C -4.0652396449 1.5840028817 0.9683825145
C -5.2623212046 1.0289783581 1.7145835071
O -1.2047276634 -0.9080586967 0.3702965748
C -1.8885287994 -2.1332063235 0.7229425178
C -2.5578009967 -2.7797081033 -0.4717252099
H 1.7428640666 -2.7031805352 -2.3149902165
H 1.6577003969 -4.1163649298 -1.2477154413
H 0.9395036675 -2.5758373661 -0.7460578691
H 3.932149815 -3.1027592949 -1.1434009341
H 3.0896826099 -2.9303931363 0.4241834989
H 1.7154138624 0.9717445294 2.2403306135
H 0.4287292401 -0.2207985009 2.5666429122
H 2.1721941091 -1.8013683238 3.4563539375
H 3.4195307836 -0.5855729364 3.133303074
H 2.1743734479 -0.2720199339 4.3510392376
H -0.3079325157 2.0700602965 -2.0781144796
H 1.244765452 2.4579771246 -1.2472734835
H -3.7110673079 2.5151987569 1.4161573854
H -4.2979824877 1.7555089918 -0.0880203881
H -4.9934806394 0.8193088275 2.7458821776
H -6.0626196509 1.761334941 1.6945855889
H -5.6071806371 0.1121806552 1.2441628445
H -1.0900795338 -2.7615786578 1.1224263248
H -2.613528347 -1.9095152059 1.5083560198
H -2.9722614161 -3.7385448236 -0.1765675773
H -3.3596707723 -2.1448157791 -0.8449055041
H -1.8389885055 -2.9290101704 -1.2742081993
*
