  18
  -18.9816587300000       7.148635488306775E-002 !md3
 C         -2.1115931692       -0.0025228990       -0.3297692231
 C         -0.8028886906       -0.0676727521        0.4495487115
 C          0.0946091258       -1.2251908549       -0.0241696518
 C          1.5174147459       -0.6819569026        0.0697108992
 C          1.3520380841        0.7619486704       -0.3932559136
 C          0.0524476625        1.2088698852        0.2821264276
 H         -1.9161362402        0.1697409142       -1.3860476268
 H         -2.6597745054       -0.9367744473       -0.2284685367
 H         -2.7384079722        0.8049938778        0.0421088643
 H         -1.0417275048       -0.2064208960        1.5081203349
 H         -0.0501034623       -2.1262624610        0.5701583874
 H         -0.1346770558       -1.4637468142       -1.0642306925
 H          1.8608624288       -0.7038751195        1.1053136371
 H          2.2222632482       -1.2440001685       -0.5413693916
 H          2.1978714662        1.3922735446       -0.1226605459
 H          1.2397966115        0.7858862646       -1.4783116188
 H          0.2720899247        1.6438865515        1.2575745812
 H         -0.4679071299        1.9620544939       -0.3079767581
  18
  -18.9816586800000       7.148257265848400E-002 !md7
 C         -2.1109802713       -0.0935523911       -0.3289559396
 C         -0.8045159283        0.0094272682        0.4500004096
 C          0.1144458529       -1.2145905535        0.2340504611
 C          1.3912667669       -0.6759865637       -0.4178163081
 C          1.4802580118        0.7566229776        0.0983281616
 C          0.0312444931        1.2279168407        0.0186789012
 H         -1.9107256661       -0.2173369765       -1.3911741728
 H         -2.6948679843       -0.9447126255        0.0143210908
 H         -2.7053438865        0.8074092482       -0.1928474359
 H         -1.0461890297        0.0965123511        1.5134470326
 H          0.3536795864       -1.6777972069        1.1917466148
 H         -0.3662994268       -1.9680501365       -0.3884500240
 H          2.2678931283       -1.2712069728       -0.1663013500
 H          1.2838853325       -0.6657252670       -1.5035783141
 H          1.8198654440        0.7584374297        1.1354484681
 H          2.1561906633        1.3765265081       -0.4891021522
 H         -0.1612684174        2.0992924479        0.6429568925
 H         -0.2089896107        1.4894181896       -1.0133813966
  18
  -18.9816586400000       7.147954702295135E-002 !mtd14
 C         -2.1091723481       -0.0939766851       -0.3312182716
 C         -0.8047055703        0.0093617304        0.4510065056
 C          0.1149154359       -1.2144059964        0.2364499164
 C          1.3893387048       -0.6759940600       -0.4198818903
 C          1.4800997782        0.7562636976        0.0968579172
 C          0.0311403071        1.2285055139        0.0212657517
 H         -2.7044946314        0.8064263843       -0.1955056705
 H         -1.9066449055       -0.2167697026       -1.3931045707
 H         -2.6931471091       -0.9457914014        0.0102058059
 H         -1.0489564720        0.0962037618        1.5138815093
 H          0.3573179810       -1.6742346923        1.1949865697
 H         -0.3663101362       -1.9704846549       -0.3824896759
 H          2.2667150229       -1.2714862616       -0.1717422561
 H          1.2779893697       -0.6651760943       -1.5052473034
 H          1.8225011681        0.7573098904        1.1330500022
 H          2.1545767645        1.3763924859       -0.4918944029
 H         -0.1595832724        2.0983605911        0.6482286708
 H         -0.2109107685        1.4930102829       -1.0095981917
  18
  -18.9816585000000       7.146895830720375E-002 !mtd3
 C         -2.1105305076       -0.0938511887       -0.3295049333
 C         -0.8045912060        0.0095812490        0.4502833130
 C          0.1145278802       -1.2144641471        0.2346077013
 C          1.3907503774       -0.6759757204       -0.4184238133
 C          1.4802714164        0.7564553994        0.0981010535
 C          0.0312890775        1.2281311390        0.0192998258
 H         -2.6955554138       -0.9439630418        0.0147784217
 H         -2.7042087623        0.8079801508       -0.1954141104
 H         -1.9094412259       -0.2196599025       -1.3912999695
 H         -1.0469207308        0.0968039892        1.5136348682
 H          0.3546420453       -1.6769735516        1.1924624622
 H         -0.3665182980       -1.9686126209       -0.3869677797
 H          2.2676191750       -1.2714580440       -0.1681371584
 H          1.2819992447       -0.6653071116       -1.5040528407
 H          1.8201625203        0.7576165836        1.1350757200
 H          2.1561549560        1.3764830712       -0.4892511868
 H         -0.1607883074        2.0993903481        0.6439204308
 H         -0.2092925820        1.4900005382       -1.0125866954
  18
  -18.9816584400000       7.146442076616617E-002 !mtd2
 C         -2.1176731616       -0.0052835303       -0.3201905550
 C         -0.8014626950       -0.0674564847        0.4463875523
 C          0.0943467386       -1.2228760484       -0.0338980369
 C          1.5172588937       -0.6834585736        0.0752820728
 C          1.3593398717        0.7619781455       -0.3859012139
 C          0.0506366733        1.2104658165        0.2716819568
 H         -2.6630622521       -0.9404208491       -0.2126047500
 H         -2.7423495221        0.8015947719        0.0568755832
 H         -1.9325975287        0.1657746010       -1.3785829884
 H         -1.0294845276       -0.2067788654        1.5073176575
 H         -0.0570123011       -2.1296979428        0.5499527735
 H         -0.1288332031       -1.4492393197       -1.0780386826
 H          1.8500394444       -0.7089201283        1.1142863305
 H          2.2271285288       -1.2452218213       -0.5302185791
 H          2.2022373861        1.3904808837       -0.1022300730
 H          1.2626998626        0.7885268894       -1.4723878305
 H          0.2574030344        1.6595934144        1.2434792061
 H         -0.4670070593        1.9533251719       -0.3337532941
  18
  -18.9816574500000       7.138959291971260E-002 !mtd1
 C         -2.1004794947        0.0022629286       -0.3465893644
 C         -0.8054037091       -0.0679412645        0.4550944300
 C          0.0950379844       -1.2291276043       -0.0067818491
 C          1.5173980156       -0.6793996041        0.0594566664
 C          1.3390005963        0.7620222807       -0.4057134641
 C          0.0556442664        1.2059018980        0.3001926459
 H         -2.7310961558        0.8112698113        0.0157033509
 H         -1.8863757626        0.1756105795       -1.3990980301
 H         -2.6534305274       -0.9303510677       -0.2559449691
 H         -1.0632707497       -0.2051431407        1.5092849668
 H         -0.0374488889       -2.1194903046        0.6062544521
 H         -0.1452317309       -1.4896533943       -1.0389871308
 H          1.8801670939       -0.6955889151        1.0885631658
 H          2.2129339660       -1.2418471409       -0.5619182897
 H          2.1894414690        1.3953750491       -0.1574275414
 H          1.1999328417        0.7820113705       -1.4877256318
 H          0.2973938752        1.6163160532        1.2811687167
 H         -0.4689734436        1.9763452353       -0.2631541654
  18
  -18.9816388400000       6.999746977280746E-002 !md5
 C         -2.1654633862       -0.0744494990       -0.2363111131
 C         -0.7907987954        0.0103196921        0.4144026737
 C          0.0930714413       -1.2225516825        0.1231356690
 C          1.4635958239       -0.6832416770       -0.3161860684
 C          1.4737833527        0.7738746329        0.1429064085
 C          0.0298122032        1.2074693448       -0.0818250187
 H         -2.7160773243       -0.9315130260        0.1446810919
 H         -2.7401321620        0.8249087959       -0.0258758051
 H         -2.0695993599       -0.1766391090       -1.3151951535
 H         -0.9252164842        0.1055604978        1.4965730708
 H          0.1879670058       -1.8416331122        1.0149281865
 H         -0.3496727043       -1.8386558776       -0.6590095047
 H          2.2868822334       -1.2566759339        0.1072204025
 H          1.5501695399       -0.7209878024       -1.4028704468
 H          1.7176064546        0.8319043667        1.2050783944
 H          2.1891516527        1.3812021765       -0.4097904088
 H         -0.2233359483        2.1275973867        0.4429382919
 H         -0.1471036353        1.3588314640       -1.1483139553
  18
  -18.9816358100000       6.977339418194130E-002 !md1
 C         -2.1700240219       -0.0729069199       -0.2267613386
 C         -0.7893778747        0.0102336353        0.4108946903
 C          0.0908073260       -1.2226062364        0.1107732672
 C          1.4700344415       -0.6845769204       -0.3041536697
 C          1.4729076237        0.7759620042        0.1456373765
 C          0.0296990629        1.2054488739       -0.0911437895
 H         -2.7431658848        0.8254176593       -0.0079139204
 H         -2.0846879666       -0.1719522688       -1.3069161160
 H         -2.7164870120       -0.9315073041        0.1569682081
 H         -0.9129515203        0.1051179662        1.4944798254
 H          0.1698634824       -1.8581077534        0.9924225768
 H         -0.3463265339       -1.8216432609       -0.6877133861
 H          2.2848639068       -1.2548244298        0.1395267388
 H          1.5789915458       -0.7298020853       -1.3885381514
 H          1.7091257649        0.8417323592        1.2090521448
 H          2.1909367893        1.3811544365       -0.4059293521
 H         -0.2280053016        2.1292129432        0.4250578893
 H         -0.1420651998        1.3475091681       -1.1596929528
  18
  -18.9816278600000       6.918887722313849E-002 !mtd6
 C         -2.1818288843       -0.0378152677       -0.1936233488
 C         -0.7821833011       -0.0609733425        0.4058039600
 C          0.0900275123       -1.1940452383       -0.1450546279
 C          1.5097544228       -0.7081179855        0.1223631627
 C          1.4457962503        0.7711586842       -0.2605583562
 C          0.0230932114        1.2223734692        0.1136681860
 H         -2.7022297626       -0.9682880632        0.0225326168
 H         -2.7606453034        0.7844812704        0.2208731044
 H         -2.1311492971        0.0850359792       -1.2735307005
 H         -0.8696038096       -0.1881236612        1.4897449267
 H         -0.1266217499       -2.1511126137        0.3275003040
 H         -0.0708465853       -1.2943237065       -1.2200014838
 H          1.7415092606       -0.8127283856        1.1836461978
 H          2.2590439165       -1.2537516183       -0.4493574780
 H          2.2097445613        1.3585165342        0.2467685191
 H          1.6014709218        0.8756797663       -1.3349331154
 H          0.0335695710        1.8754129724        0.9857618610
 H         -0.4314505620        1.7776207973       -0.7066506471
  18
  -18.9816253200000       6.900316002669642E-002 !gc
 C         -2.0533859212       -0.1096920226       -0.4034185205
 C         -0.8145641635        0.0062444933        0.4793211935
 C          0.1300296772       -1.2026395207        0.3134584767
 C          1.3253432039       -0.6770196760       -0.4798307160
 C          1.4771880959        0.7482619311        0.0401168723
 C          0.0326052329        1.2425909264        0.1114261438
 H         -1.7660483822       -0.2287950799       -1.4458545290
 H         -2.6529457556       -0.9687220629       -0.1100897757
 H         -2.6682619892        0.7833809747       -0.3143100367
 H         -1.1430669813        0.0760105545        1.5201351040
 H          0.4671570207       -1.5508342357        1.2907723613
 H         -0.3633625331       -2.0339184805       -0.1878884692
 H          2.2206067205       -1.2796034474       -0.3339050690
 H          1.0914348810       -0.6579170049       -1.5453719538
 H          1.9203110029        0.7310910888        1.0372528486
 H          2.0982885100        1.3705272359       -0.6026299566
 H         -0.0898352244        2.0506212754        0.8312546320
 H         -0.2727879141        1.6158496424       -0.8671687138
  18
  -18.9816247100000       6.895863293860945E-002 !gc
 C         -2.0529173558       -0.1098100017       -0.4039643923
 C         -0.8146359006        0.0062175863        0.4795334736
 C          0.1301316288       -1.2025405718        0.3140137426
 C          1.3248455452       -0.6770478032       -0.4802223988
 C          1.4771269645        0.7482254028        0.0396201132
 C          0.0326232369        1.2426863757        0.1121446007
 H         -2.6525256318       -0.9689596855       -0.1110837415
 H         -2.6679892949        0.7831562693       -0.3151439842
 H         -1.7649289090       -0.2287709516       -1.4462365325
 H         -1.1437706351        0.0758377563        1.5201560354
 H          0.4679020921       -1.5499435279        1.2913906667
 H         -0.3633080326       -2.0342973690       -0.1864908613
 H          2.2201993026       -1.2796579499       -0.3349684970
 H          1.0900977577       -0.6579701480       -1.5455788458
 H          1.9210892860        0.7310017860        1.0363812050
 H          2.0977286039        1.3704856120       -0.6036130646
 H         -0.0892257801        2.0501481064        0.8327120469
 H         -0.2732788227        1.6168410231       -0.8659439586
  18
  -18.9816237300000       6.888715776978326E-002 !md4
 C         -2.1863589331       -0.0402762805       -0.1820869217
 C         -0.7805022053       -0.0598990648        0.4022867952
 C          0.0894141820       -1.1916476962       -0.1533168679
 C          1.5089683188       -0.7106975110        0.1237395090
 C          1.4524520418        0.7730387895       -0.2457862877
 C          0.0205438891        1.2221248328        0.0967921233
 H         -2.1472361519        0.0763579396       -1.2632150799
 H         -2.7044389802       -0.9694324141        0.0448005111
 H         -2.7605065702        0.7845780077        0.2338068339
 H         -0.8553301900       -0.1832880241        1.4877227081
 H         -0.1312073436       -2.1513686174        0.3119927364
 H         -0.0680376888       -1.2840018670       -1.2295534329
 H          1.7360765783       -0.8260683939        1.1849307971
 H          2.2594141428       -1.2530623242       -0.4495595309
 H          2.2033111752        1.3541915640        0.2876126707
 H          1.6363044339        0.8901777209       -1.3143754090
 H          0.0108622606        1.8952587691        0.9534839897
 H         -0.4247292880        1.7543291227       -0.7437258841
  18
  -18.9809374800000       3.332419005265942E-002 !mtd1
 C         -1.7861909753       -0.0383073016       -0.6630196810
 C         -0.8516518883       -0.0329001486        0.5429793697
 C          0.1417220353       -1.1971554809        0.5021602434
 C          1.2636100763       -0.7282319093       -0.4331204667
 C          1.2208856671        0.8114887222       -0.4067563937
 C          0.0754808129        1.1854266265        0.5427432089
 H         -1.2196962828       -0.0067693911       -1.5892160488
 H         -2.3984199804       -0.9375344975       -0.6636868755
 H         -2.4473811850        0.8250533711       -0.6336268645
 H         -1.4575115161       -0.0652087777        1.4532725741
 H          0.5388963134       -1.3677480585        1.5040056647
 H         -0.3197445591       -2.1217601809        0.1583954457
 H          2.2303872486       -1.1090598979       -0.1065005701
 H          1.0921489844       -1.0965017429       -1.4444338183
 H          2.1653714086        1.2338462974       -0.0661424993
 H          1.0285431396        1.2040952770       -1.4051321543
 H          0.4633835619        1.3436878499        1.5501787848
 H         -0.4369367003        2.0940802994        0.2301170225
  18
  -18.9809374800000       3.332419005265942E-002 !mtd12
 C         -1.7860992790       -0.0383768244       -0.6630701018
 C         -0.8516622366       -0.0328858147        0.5430496448
 C          0.1416881301       -1.1971316647        0.5022162541
 C          1.2634709506       -0.7281972153       -0.4331864913
 C          1.2209229733        0.8115202989       -0.4067557662
 C          0.0755355542        1.1854039079        0.5427762786
 H         -2.3982373105       -0.9376484272       -0.6637854261
 H         -2.4473767699        0.8249160924       -0.6337697825
 H         -1.2195305403       -0.0068161458       -1.5891991544
 H         -1.4575442496       -0.0652058108        1.4533286450
 H          0.5389111727       -1.3677253604        1.5040091099
 H         -0.3197983981       -2.1216998549        0.1585018164
 H          2.2303182226       -1.1092094889       -0.1068622530
 H          1.0916821056       -1.0963287832       -1.4445492327
 H          2.1654497818        1.2338308073       -0.0662027955
 H          1.0285496754        1.2041697283       -1.4051037280
 H          0.4634683902        1.3436760598        1.5502010902
 H         -0.4368559931        2.0940765922        0.2301435415
  18
  -18.9809374200000       3.332207431061575E-002 !md1
 C         -1.7861208112       -0.0388668199       -0.6630349783
 C         -0.8516434361       -0.0327669134        0.5430401188
 C          0.1419292242       -1.1968552904        0.5026661522
 C          1.2626242931       -0.7282913750       -0.4341491065
 C          1.2216948169        0.8114088510       -0.4059372216
 C          0.0753847642        1.1856779608        0.5424401671
 H         -2.4470806930        0.8246606170       -0.6343222363
 H         -1.2195383110       -0.0081024435       -1.5892433556
 H         -2.3985782633       -0.9379319116       -0.6631631260
 H         -1.4575238091       -0.0648091571        1.4533218853
 H          0.5399831728       -1.3663339587        1.5042980051
 H         -0.3195458325       -2.1218446036        0.1601540013
 H          2.2295979086       -1.1106738158       -0.1100190439
 H          1.0886096402       -1.0950852473       -1.4455077571
 H          2.1661380902        1.2321128394       -0.0633574656
 H          1.0314604405        1.2054774130       -1.4040697769
 H          0.4624246610        1.3449947585        1.5500579016
 H         -0.4370629582        2.0938840287        0.2286186465
  18
  -18.9807656000000       2.778235291542372E-002 !mtd8
 C         -1.8505279159        0.0179684441       -0.6190647641
 C         -0.8465270534       -0.0468454595        0.5291958063
 C          0.1113535658       -1.2413132100        0.3806611377
 C          1.3984413458       -0.6980805390       -0.2697592315
 C          1.1702026513        0.8039992238       -0.4785700919
 C          0.0889606289        1.1656966019        0.5362578286
 H         -2.4738860468        0.9050385318       -0.5299973150
 H         -1.3394606270        0.0488460583       -1.5772644940
 H         -2.4976911010       -0.8562136734       -0.6042808259
 H         -1.4047492150       -0.1114500560        1.4676641412
 H          0.3358968949       -1.6638941739        1.3601368486
 H         -0.3409311060       -2.0282693706       -0.2213132468
 H          2.2498789384       -0.8596567017        0.3914927532
 H          1.6146658576       -1.1992302913       -1.2123350253
 H          2.0821449740        1.3811801763       -0.3323016993
 H          0.8105081613        0.9977955760       -1.4893768538
 H          0.5350739030        1.2787274531        1.5257084389
 H         -0.4283110422        2.0901442194        0.2837641434
  18
  -18.9807616700000       2.766705419807968E-002 !mtd9
 C         -1.8303745836       -0.0841573234       -0.6255688563
 C         -0.8459152987       -0.0231315779        0.5392839639
 C          0.1561549430       -1.1799019161        0.5021852019
 C          1.2115558483       -0.7254994116       -0.5041008209
 C          1.3254940053        0.7915618801       -0.2931982359
 C          0.0526556469        1.2202934650        0.4616076265
 H         -1.3068702121       -0.0357836663       -1.5763557163
 H         -2.4027522694       -1.0086878715       -0.5916431738
 H         -2.5265719958        0.7502020133       -0.5750349496
 H         -1.4169904104       -0.0325094250        1.4722336092
 H          0.6110529931       -1.2999294669        1.4868639173
 H         -0.3082695687       -2.1237779283        0.2203180341
 H          2.1641333578       -1.2317064284       -0.3537168632
 H          0.8756335391       -0.9446064767       -1.5178564066
 H          2.2109126203        1.0290377184        0.2962157450
 H          1.4173806400        1.3119977199       -1.2457249748
 H          0.3093970841        1.5527698406        1.4677798972
 H         -0.4561181949        2.0429431630       -0.0389168502
