! pbe def2-sv(p) def2/J RI DEFGRID1 loosescf d4 GCP(DFT/SV(P)) printgap
%output
    printlevel normal
end
* xyz 0 1
C 4.5128587841 -1.2112524846 0.8015330486
C 4.7682700076 -0.4676635185 -0.4923103024
O 3.5859587247 -0.3676314632 -1.3252620802
P 2.2487757721 0.3782796013 -0.9508025372
S 1.2683637485 0.8230692409 -2.5892752669
O 2.788497329 1.5881301164 -0.0799401486
C 1.9382871919 2.5136688411 0.6269067805
C 2.0099192369 2.2367416646 2.1160816707
S 1.1742205844 -0.8617841656 0.4123833915
C 0.005258461 -1.599703932 -0.7727666746
S -1.5160081636 -2.1536193347 0.0238916297
P -2.4325250848 -0.2823306198 0.4949589791
S -1.5505664646 1.33576425 -0.194296577
O -2.6866221739 -0.3778894898 2.0519253078
C -1.6094432512 -0.3838973823 3.0121140884
C -1.3276240978 1.0210179949 3.5085237886
O -3.9503857289 -0.4434749924 0.0843108812
C -4.4378313726 -0.0437913741 -1.2068181385
C -3.8850804728 -0.9119087736 -2.3203319601
H 3.8188546414 -0.6555106946 1.4288630901
H 4.0927047388 -2.1932951337 0.6006029347
H 5.4532496712 -1.3272807312 1.3313531373
H 5.4737701348 -1.0015190241 -1.1309970316
H 5.1330283811 0.5425049335 -0.2991421622
H 2.3283681643 3.5043368566 0.3857802368
H 0.9143833185 2.4339923885 0.2501132839
H 1.6305050136 1.2405418464 2.3320461079
H 3.0388091775 2.3074624513 2.4571764423
H 1.4066394734 2.9697687277 2.6416523481
H 0.4515255367 -2.4882998712 -1.2124551187
H -0.2108803422 -0.8479457521 -1.5372520516
H -1.9660434356 -1.0277843413 3.8181252312
H -0.7158241458 -0.829079967 2.5601608661
H -0.5349261735 0.9889096536 4.2487531046
H -1.0205094431 1.655085756 2.6800062297
H -2.2230300086 1.4439930382 3.9549915942
H -5.5205693543 -0.1436816184 -1.1197963682
H -4.1750348455 1.0064214861 -1.3724320005
H -2.8170524805 -0.7297913046 -2.4421389268
H -4.0407131624 -1.9634203513 -2.0920625297
H -4.385581654 -0.6661318617 -3.2515491457
*
