! wb97x-v def2-tzvp def2/J RIJCOSX DEFGRID2 scfconv7 GCP(DFT/TZ) printgap
%output
    printlevel normal
end
%cpcm
    smd true
    smdsolvent "water"
end
* xyz 0 1
C -0.6047617462889195 -0.4410845917949031 1.281601214437953
C 0.6051042294113314 0.4400291727229004 1.282111482381958
Br 1.8329871248945278 0.06713934103107227 -0.22791159877151282
Br -1.8329597166788916 -0.06676590169303115 -0.227844852199869
H -1.1857935074397834 -0.24484362650502792 2.1854772827548525
H -0.3615624094892727 -1.500827978257674 1.2197591954519333
H 0.3618805330413056 1.499821031880273 1.221271800577175
H 1.1861301745800101 0.24290981800981296 2.1858030979497296
*
