! pbe def2-sv(p) def2/J RI DEFGRID1 loosescf d4 GCP(DFT/SV(P)) printgap
%output
    printlevel normal
end
* xyz 0 1
C 4.1835023678 2.2938171696 -0.3950236965
C 2.999471641 1.5206865085 -0.9385577918
O 2.007497702 1.3220711008 0.0960726288
P 1.8217808291 -0.054080371 0.8454101862
S 0.4267949726 0.0734720029 2.2118824423
O 3.3110659026 -0.31338933 1.3486025557
C 3.8377799223 -1.5763099971 1.7930260155
C 3.0138820553 -2.2062210328 2.8963091558
S 1.5822228618 -1.5695002094 -0.639966525
C -0.1490905157 -2.0162113717 -0.3832313137
S -1.2488530162 -1.4617184916 -1.7312660601
P -2.0866367352 0.2579695953 -0.8782838642
S -3.5269932329 1.1202212114 -1.8853054311
O -0.7645513162 1.1145497855 -0.6419237136
C -0.8897272786 2.4804147338 -0.1804762969
C -0.7304441082 3.4461710168 -1.3357643235
O -2.4871335105 -0.1134469108 0.6214141189
C -3.8073440544 -0.5635709247 0.9665319107
C -4.0579479815 -1.9826078882 0.4971612543
H 3.8516743168 3.2441838729 0.0137857199
H 4.672719806 1.7262393081 0.3919894905
H 4.8888766547 2.4756703748 -1.1997916999
H 3.3067340403 0.5480033685 -1.3334934817
H 2.4831090827 2.0810976175 -1.7206726281
H 3.9007724493 -2.2426417674 0.9283344636
H 4.8414586891 -1.3266760112 2.1418576833
H 2.8916827332 -1.5108755663 3.7234991234
H 2.0256278213 -2.4727805853 2.5249312628
H 3.5126757867 -3.102543697 3.2506033367
H -0.4867683692 -1.5884630767 0.5648818141
H -0.2035022373 -3.1012791649 -0.3824526515
H -1.8611757294 2.6035072437 0.3066721699
H -0.0992735912 2.6019879794 0.5625786461
H 0.2202952593 3.2794769458 -1.8340535096
H -1.5348441764 3.3047470079 -2.0548496424
H -0.7658335496 4.4624546748 -0.9567303515
H -3.8355290668 -0.4834206478 2.0541446032
H -4.5340500803 0.1236870891 0.5207157621
H -4.0254574223 -2.0243417036 -0.5913795781
H -3.3055311375 -2.6548502582 0.9013288918
H -5.0399045099 -2.3008312522 0.8320786351
*
