! pbe def2-sv(p) def2/J RI DEFGRID1 loosescf d4 GCP(DFT/SV(P)) printgap
%output
    printlevel normal
end
* xyz 0 1
C 1.3415006807 1.6241185042 2.7972809037
C 1.7779091779 2.0737578449 1.4165723752
O 2.8727359247 1.295483766 0.9049225165
P 2.7595937115 -0.2137681428 0.439015697
S 2.7178598909 -1.6095456701 1.8226762019
O 4.0733352144 -0.1966353748 -0.4400657058
C 4.7688992164 -1.4073142798 -0.7829820214
C 3.9934429186 -2.2452269698 -1.7803738955
S 1.1400012691 -0.2448659982 -0.9606276955
C -0.0058436106 -1.3135750443 -0.046718962
S -1.2012797581 -0.3889459394 0.9396258751
P -2.4351043566 0.2326026309 -0.6920235374
S -2.5084047874 -0.9868283268 -2.2197206626
O -1.8888143066 1.633302184 -1.1684454837
C -1.798062775 2.7956796374 -0.3091123998
C -2.9927006554 3.7060207716 -0.5093183861
O -3.7921904401 0.6350452824 0.0298058778
C -4.5204950766 -0.1972355129 0.9523491212
C -4.8412418038 -1.563607008 0.3845913539
H 2.1960677612 1.5964959917 3.468325773
H 0.6030194829 2.3185994308 3.1846030911
H 0.9007589501 0.6291302494 2.7551707582
H 2.173035049 3.0910016448 1.4360232205
H 0.9455042113 2.0177823999 0.7073481356
H 5.714020355 -1.0576876894 -1.2004176621
H 4.9559323617 -1.9761039526 0.1339365196
H 4.6075453778 -3.0790308328 -2.1051251229
H 3.0881772901 -2.6352672616 -1.3163863239
H 3.7149590624 -1.644667039 -2.64290137
H 0.5616241135 -1.9413186113 0.6441275765
H -0.5453078887 -1.9064772352 -0.786115944
H -1.7219633498 2.4649886095 0.730942988
H -0.8724969775 3.2890486907 -0.6130294166
H -3.9082464005 3.1956227787 -0.2233127823
H -2.8689341689 4.5939708862 0.1026547907
H -3.0671379651 3.9964683916 -1.5536065942
H -3.9306289264 -0.2877057945 1.8686029805
H -5.4293461039 0.373613965 1.1505539007
H -5.361534121 -1.467736119 -0.5655304916
H -3.924758767 -2.1275247091 0.2168745786
H -5.4673121225 -2.1074972516 1.0845767194
*
