! pbe def2-sv(p) def2/J RI DEFGRID1 loosescf d4 GCP(DFT/SV(P)) printgap
%output
    printlevel normal
end
* xyz 0 1
C 2.8551162932 -0.08139095 -2.7580978951
C 3.0632394057 0.9388585151 -1.6556170277
O 3.5827501663 0.3093802263 -0.4703992337
P 2.7135546622 -0.0423444831 0.8044121677
S 1.7063255298 1.4417574821 1.6043541617
O 3.9247968205 -0.5959774935 1.6527164497
C 3.8720693598 -0.7034106683 3.0872327178
C 2.894795319 -1.7651951377 3.5511139294
S 1.5558967069 -1.7737861528 0.3254758223
C -0.0812983697 -1.0264081409 0.3555513668
S -0.3946998155 -0.0838073435 -1.1912020303
P -2.4733230371 0.1481904837 -0.9648782826
S -3.4337262129 1.119121363 -2.3685091196
O -2.6793391636 0.7110470628 0.5170727154
C -2.8611226094 2.1113254317 0.7763235466
C -1.6195471889 2.9190082532 0.4577361596
O -2.860031676 -1.3813149612 -0.7772333303
C -4.2034833475 -1.8566798005 -1.0013408513
C -5.16879933 -1.3369647193 0.0430443507
H 2.5659721713 0.4345137743 -3.6678167456
H 3.7755896295 -0.6318244465 -2.9302037451
H 2.0672834632 -0.7813067532 -2.4895642582
H 2.1301324604 1.4601525494 -1.4175030994
H 3.8232345556 1.6708220057 -1.9366986042
H 4.8970368003 -0.9524206939 3.3655277132
H 3.6042924183 0.2745419982 3.5004830181
H 3.0926550474 -2.7065033648 3.0448538187
H 2.9988263695 -1.9024789362 4.6227586811
H 1.8738705662 -1.4555250131 3.332966747
H -0.1515135 -0.3376442054 1.1985120101
H -0.8013291167 -1.8361460568 0.4244151722
H -3.7056659704 2.4661135763 0.176745477
H -3.1099199802 2.1554396139 1.8372690953
H -1.7908963532 3.9598249548 0.7122736304
H -0.7614184805 2.554958023 1.019204645
H -1.3980030443 2.8499783522 -0.6077064458
H -4.5163623321 -1.5478008267 -2.0035729528
H -4.1054268322 -2.9422997651 -0.9605958706
H -6.1381730941 -1.8039912822 -0.1000711751
H -4.8022732879 -1.5606907679 1.0414738647
H -5.2785550443 -0.2580910834 -0.0592627179
*
