! pbe def2-sv(p) def2/J RI DEFGRID1 loosescf d4 GCP(DFT/SV(P)) printgap
%output
    printlevel normal
end
* xyz 0 1
C 3.0738840023 2.4764563426 -1.2076448257
C 3.4236647354 1.0572529772 -1.6043272942
O 2.4106626948 0.1156376953 -1.1892643718
P 2.0832543093 -0.2518848225 0.3068930423
S 1.1534234028 1.0051070247 1.5001273557
O 3.538167196 -0.6272445953 0.8396193454
C 3.8151748328 -0.8966618395 2.2267965791
C 5.2709186891 -0.5669824473 2.490926352
S 1.1152610579 -2.1024981039 0.0147328528
C -0.4191363768 -1.857799468 0.9721210416
S -1.9228538671 -1.9140184911 -0.0334583302
P -2.0344428904 0.0817088471 -0.6994127235
S -0.5937593703 0.8822640599 -1.7551215809
O -2.3083647871 0.8039760484 0.7009342182
C -2.0860522469 2.2098928103 0.8915284127
C -3.1620002188 3.0358421324 0.2186748872
O -3.3611887187 0.093842501 -1.565138086
C -4.5464822658 -0.7033861472 -1.332763839
C -5.2418795952 -0.3503297986 -0.0350407301
H 3.7983727356 3.1621423618 -1.6350398667
H 2.0794837699 2.7250609814 -1.5739138209
H 3.0794582355 2.5799926948 -0.1234623202
H 4.3804086514 0.747462647 -1.1774147803
H 3.4410379529 0.9414123578 -2.6892628821
H 3.1485563848 -0.2830621712 2.8425881133
H 3.6062970959 -1.9535068001 2.4101490672
H 5.4559456584 0.4887217518 2.3123539135
H 5.5051858507 -0.8002751533 3.5242862815
H 5.9089990346 -1.1532040492 1.8358497019
H -0.3597698196 -0.9001843183 1.4977586834
H -0.5043862461 -2.6888953819 1.6668831829
H -2.082949667 2.336468585 1.9750901704
H -1.097406483 2.4665750919 0.4974121963
H -2.9668228291 4.0893230015 0.3922561092
H -3.1506669261 2.8436957117 -0.854252217
H -4.1397377629 2.7795970525 0.617274148
H -5.1711576724 -0.4782387132 -2.1989215949
H -4.2597564209 -1.7576996819 -1.348064994
H -6.1397239755 -0.9532640527 0.0581008908
H -4.5886581464 -0.5542657997 0.8103558496
H -5.5161183626 0.7012433438 -0.0275959422
*
