! r2scan-3c def2/J RI DEFGRID2 scfconv6 printgap
%output
    printlevel normal
end
%cpcm
    smd true
    smdsolvent "water"
end
* xyz 0 1
C 2.9642166476 2.3509028794 -1.9087867396
C 3.745605734 2.1198409825 -0.6308330595
O 3.6540540177 0.75538895 -0.1908577804
P 2.3208833771 0.1566765502 0.4388861127
S 1.4358209186 1.3997749534 1.6719768143
O 2.8558535177 -1.1901705637 1.0710659554
C 2.9854402984 -1.411974117 2.4942412984
C 1.9450675659 -2.4097425769 2.9633219258
S 1.3022091296 -0.6058730194 -1.2608462427
C 0.3009957553 -1.8781685505 -0.4428497822
S -0.9110121293 -1.2046675457 0.7197374797
P -2.1258453945 -0.2223133743 -0.734688303
S -2.2085520182 -1.1176308188 -2.4703826771
O -1.6349942415 1.2677069129 -0.8441894453
C -1.7603062594 2.2306661242 0.2373282205
C -1.0444127726 3.4923515016 -0.1921356638
O -3.5087632645 -0.0639152195 0.0301383156
C -4.362724926 -1.2049889148 0.2627637766
C -5.734400882 -0.6876814541 0.6445247326
H 3.1060517103 3.3742331111 -2.2412681716
H 3.2984117051 1.6676407022 -2.685378716
H 1.9015139711 2.1782899555 -1.7349631326
H 3.378197903 2.7682571716 0.172163783
H 4.8141520705 2.2814826853 -0.7779017465
H 3.9987007315 -1.7905784797 2.6354631258
H 2.8714059001 -0.457646049 3.0175406715
H 2.0774016774 -2.5850979168 4.025987725
H 0.9431530464 -2.0181517048 2.7914911278
H 2.054886965 -3.350655451 2.4310479459
H 0.9444559953 -2.5535421815 0.1146521753
H -0.2254536371 -2.3965472777 -1.2453744312
H -2.8230544774 2.4062619739 0.4089436541
H -1.3090213047 1.8070154548 1.1391506036
H -1.4333099648 3.8372661261 -1.1458022177
H -1.1948007715 4.2566989683 0.5630440026
H 0.0210931687 3.3023854191 -0.2900869564
H -4.3980855781 -1.8039555164 -0.6530778265
H -3.9214141275 -1.8012974715 1.0657965247
H -6.39153742 -1.5302579043 0.8325083678
H -5.6658466114 -0.0775843394 1.540462861
H -6.1443961932 -0.0862728641 -0.1619664948
*
