! pbe def2-sv(p) def2/J RI DEFGRID1 loosescf d4 GCP(DFT/SV(P)) printgap
%output
    printlevel normal
end
* xyz 0 1
C 2.1802638685 3.2534406834 1.6680429404
C 1.3563609259 2.0236581985 1.3444959261
O 2.2641825233 0.922559644 1.174571858
P 1.7949225161 -0.5998950192 1.1378231889
S 0.5703830604 -1.1628009267 2.5511857258
O 3.1784679414 -1.3410852925 1.2687706841
C 4.2673564764 -1.1696040158 0.3241239632
C 4.4850035332 -2.4555142101 -0.4474618358
S 1.1874674584 -0.9154149139 -0.8825763608
C -0.2977320179 -1.9223979304 -0.6059674728
S -1.7597851884 -1.3535225715 -1.5216644382
P -1.9753665763 0.633535319 -0.7980176428
S -3.6989116749 1.4784685207 -1.177761456
O -0.7076170128 1.445903944 -1.3152900265
C -0.6968354501 2.0880041624 -2.6035641137
C -0.5780753107 1.0900251326 -3.7384757164
O -1.531105621 0.5676055971 0.7288123379
C -2.5188034484 0.4654444203 1.7714243138
C -3.1658639502 -0.9039162037 1.8176697022
H 2.8771659028 3.4570073385 0.8602443354
H 1.5169874346 4.1028908832 1.7941422089
H 2.740570725 3.0953816921 2.5854359956
H 0.7851416376 2.1527528892 0.4217310985
H 0.6606653248 1.7798950884 2.153958753
H 4.0365167454 -0.3371397028 -0.3440599378
H 5.1356389403 -0.9189110414 0.9352491829
H 5.3663721999 -2.3495081752 -1.0718232862
H 4.6316996088 -3.2813220916 0.2430359681
H 3.6262310674 -2.6707103863 -1.078251166
H -0.505012767 -1.9329319889 0.4668492889
H -0.1168833642 -2.9262665748 -0.9821903685
H -1.6113744337 2.6822504124 -2.7010838696
H 0.1705127992 2.7485717122 -2.5603433685
H -1.4838179756 0.4889076749 -3.8071132716
H -0.4404845829 1.6267315725 -4.6716526607
H 0.2710930126 0.4308481293 -3.5719672707
H -1.9610920019 0.6674934766 2.6870881562
H -3.271754628 1.2425564523 1.6086491222
H -2.4175425546 -1.6697967825 2.0079126355
H -3.8979560986 -0.9225919221 2.6184951034
H -3.6691826569 -1.1120681134 0.87370933
*
