! pbe def2-sv(p) def2/J RI DEFGRID1 loosescf d4 GCP(DFT/SV(P)) printgap
%output
    printlevel normal
end
* xyz 0 1
C 2.5173024129 2.4097001432 0.1493047806
C 2.023222187 2.0965043475 1.5455644788
O 1.1536965504 0.9410864633 1.5891320779
P 1.5311258775 -0.5033512261 1.0715191627
S 0.6107958312 -1.9450146835 2.0279442364
O 3.1111130881 -0.5029875628 1.2997661296
C 3.8819521474 -1.7112153243 1.4049684429
C 3.9113646318 -2.5019262018 0.112771564
S 1.3390598693 -0.5248731113 -1.0518451976
C -0.0286850134 -1.6899743825 -1.2474488234
S -1.5562914973 -0.9760401997 -1.9437972693
P -1.8985146823 0.6656971494 -0.6504714802
S -3.6994247442 1.4266082851 -0.7359870223
O -0.7360495607 1.7179541624 -0.9187805661
C -0.8444795766 2.6926029985 -1.9749744832
C -0.4363257714 2.1168222125 -3.3172923732
O -1.3941670958 0.1640441689 0.7743737199
C -2.3504154382 -0.2266873099 1.7781796282
C -2.9945482761 -1.5609091388 1.4597749585
H 3.0763059325 3.3401365973 0.1705221749
H 3.1654287148 1.612967886 -0.2108991614
H 1.6756530968 2.5096851114 -0.5297893339
H 1.390086994 2.8954023872 1.935714883
H 2.8591093951 1.9183316306 2.2258128644
H 4.8764386698 -1.3586644942 1.6825425304
H 3.4642397171 -2.3175677282 2.2148328324
H 2.9256264116 -2.9152446468 -0.0941621463
H 4.2099524356 -1.8663029365 -0.7167794939
H 4.6184352047 -3.3190853333 0.2135771646
H -0.2391484695 -2.1412448993 -0.2742906838
H 0.2672557724 -2.4429741432 -1.9738411127
H -1.8748211866 3.0637987584 -2.0018006962
H -0.1779375591 3.5001872971 -1.666855958
H 0.5394622592 1.6424495616 -3.2417055319
H -1.1621882868 1.3766743965 -3.6490977651
H -0.391761841 2.91835901 -4.0475948341
H -1.7657958259 -0.2740710348 2.6983107895
H -3.1079238907 0.558796685 1.8569853579
H -2.2410272366 -2.3435692354 1.4086441143
H -3.7056362555 -1.8070027635 2.2417013143
H -3.5213356062 -1.501275082 0.507360949
*
