! pbe def2-sv(p) def2/J RI DEFGRID1 loosescf d4 GCP(DFT/SV(P)) printgap
%output
    printlevel normal
end
* xyz 0 1
C 4.3692337717 -2.4293255956 -0.333222345
C 4.5150284306 -0.9697631655 0.0483333229
O 3.8286167487 -0.1299404148 -0.9187642142
P 2.4855572128 0.6293293884 -0.608627091
S 1.8859746985 1.6004887231 -2.1984147141
O 2.9025202001 1.4957030199 0.65581428
C 1.9689536034 2.2385401471 1.4669664139
C 1.8372513643 1.5747532288 2.8246057394
S 1.1347658437 -0.812784878 0.1825835484
C 0.1454956019 -1.0937682845 -1.3223346526
S -1.5012661111 -1.7028248505 -0.9356603857
P -2.377508916 0.0509386208 -0.0755995794
S -1.3490419785 1.7047964216 -0.3084153043
O -2.6896288533 -0.3449182494 1.4312654956
C -1.6516279431 -0.3988636405 2.4306640722
C -2.3186725551 -0.5597459076 3.781117648
O -3.8171237619 0.17275704 -0.6943537622
C -4.959243207 -0.6435596367 -0.3269374569
C -4.7442477367 -2.1107962595 -0.6279292711
H 4.9827071672 -3.0307422974 0.3299942718
H 3.3334114713 -2.746568281 -0.2421828831
H 4.696729392 -2.5790821199 -1.3582994664
H 5.5564020535 -0.6480647291 0.004531341
H 4.1110171687 -0.7748213064 1.0436743545
H 2.3912347227 3.2415205375 1.5518579878
H 1.0055520529 2.303696989 0.9521847918
H 1.4557439469 0.5619867866 2.7133226043
H 2.8068246794 1.5364214522 3.3127524721
H 1.1505737297 2.1520701747 3.4350728608
H 0.617319626 -1.8626305188 -1.9297027427
H 0.0831594319 -0.1458984645 -1.8641441797
H -0.9942274717 -1.2435184759 2.2028474153
H -1.0725629946 0.5280570757 2.3743846333
H -2.9722781402 0.2852318917 3.9779560742
H -2.9059887225 -1.4728501448 3.8004048639
H -1.5546334155 -0.6083287213 4.5497296331
H -5.1616397315 -0.484987678 0.7333747744
H -5.765820578 -0.221854663 -0.9284823075
H -5.6583366445 -2.6541163597 -0.4093326282
H -4.4855183288 -2.251394567 -1.6742263854
H -3.9389282648 -2.5100724839 -0.0138894216
*
