! r2scan-3c def2/J RI DEFGRID2 scfconv6 printgap
%output
    printlevel normal
end
* xyz 0 1
C 5.7535584108 0.7907883154 -0.9064672146
C 4.3467656788 0.3398154759 -1.2427392718
O 3.5953214129 0.2888334936 -0.0122260409
P 2.0149755057 0.1530541229 -0.0159385183
S 1.047658961 1.5081696902 -1.0514543759
O 1.6553346865 0.2102175821 1.5149359983
C 2.2591576153 -0.6602127687 2.5104838629
C 3.3921758391 0.0509013712 3.2195845593
S 1.7405258485 -1.8632379987 -0.6421029629
C -0.0246247786 -1.7778963919 -1.0117209646
S -1.0156725379 -1.282168593 0.4315272275
P -2.2093188002 0.2718205306 -0.4100975184
S -2.1707479329 0.404892792 -2.3620659511
O -1.8942171596 1.6280994357 0.3153811126
C -1.4690215581 1.8137081844 1.6869057556
C -2.3606931684 1.1084405339 2.6847118095
O -3.6532373864 -0.0638995921 0.1690674927
C -4.4256230265 -1.170047279 -0.3345198928
C -5.8754194152 -0.9375689363 0.0404002753
H 6.3396703407 0.8356423685 -1.8184000488
H 5.7305406569 1.7750642014 -0.4472627911
H 6.2141687635 0.0887313263 -0.2177182259
H 4.3418576324 -0.6587019428 -1.6880326889
H 3.8503925732 1.038286388 -1.9243484105
H 1.4418176665 -0.8991071264 3.1930520367
H 2.6068260272 -1.5718600651 2.0175383356
H 4.1848531498 0.2900691059 2.5159208782
H 3.0331177878 0.9726297972 3.6688069331
H 3.7849504531 -0.5975360347 3.9964007511
H -0.3179844957 -2.7817935604 -1.3084863135
H -0.2095139072 -1.059499564 -1.816017179
H -0.4325868947 1.4718168908 1.7651605503
H -1.5010664517 2.8978497779 1.8071990483
H -2.2920070901 0.0289824679 2.5572950326
H -2.0390230571 1.3678068327 3.6886692914
H -3.3938596314 1.4153511144 2.5445640237
H -4.2958289614 -1.2208091647 -1.4211417526
H -4.0381876716 -2.087395855 0.1173452796
H -6.4744777697 -1.7647534623 -0.3256749761
H -5.9745568617 -0.8696024419 1.119664125
H -6.2305887827 -0.0126428529 -0.4053921666
*
