! pbe def2-sv(p) def2/J RI DEFGRID1 loosescf d4 GCP(DFT/SV(P)) printgap
%output
    printlevel normal
end
* xyz 0 1
C 3.1733412544 -1.068615298 -2.4506762544
C 1.7256650074 -0.698840325 -2.2146748245
O 1.3953171933 -0.7355546038 -0.8116064392
P 1.9898940948 0.3120746506 0.2111657757
S 2.5573276217 2.0683452574 -0.4353849088
O 3.1614296889 -0.5649927167 0.8473723215
C 4.1026322028 -0.0018963252 1.7789778763
C 5.3076297457 -0.9192286261 1.8374363442
S 0.5293331028 0.3161492183 1.7476708042
C 0.0961660915 -1.4409450088 1.7414170804
S -1.0629831864 -1.9491985949 0.4159087001
P -1.9980656697 -0.1330751857 -0.1058735304
S -1.0571351229 1.2385945384 -1.1690090428
O -2.5739108865 0.3113412685 1.2954372671
C -2.9269927927 1.678084823 1.591043411
C -4.1645865088 2.1049840292 0.8313170482
O -3.2938995727 -0.6744362285 -0.8470172198
C -3.3137987985 -1.0366974585 -2.2412609832
C -4.7396195442 -0.9085035876 -2.7393646496
H 3.3653177166 -1.1049048896 -3.5182810775
H 3.8201531509 -0.3171105016 -1.9989202201
H 3.389476992 -2.036767881 -2.0069323552
H 1.0390378385 -1.4208165252 -2.6600759395
H 1.5041376797 0.3032639524 -2.5967723324
H 4.3753711259 1.0012051013 1.4336838587
H 3.6138850319 0.0811408744 2.7542325147
H 6.0193803815 -0.5243651569 2.5547937514
H 5.0026340046 -1.9156357141 2.1432136603
H 5.7794419358 -0.9789355269 0.8609216308
H -0.3834669004 -1.631945743 2.6985490673
H 0.9955796943 -2.0407280592 1.6161021497
H -3.0864031963 1.6784287559 2.6698907763
H -2.0746102274 2.3199471092 1.3435684757
H -3.9537748285 2.1120450291 -0.2376326733
H -4.9798136996 1.4131839088 1.0251297665
H -4.4523649899 3.1046797286 1.1410536159
H -2.6371131774 -0.3688084634 -2.7859012399
H -2.9530959008 -2.0650496922 -2.3272214092
H -4.7827177748 -1.2197811732 -3.7778787273
H -5.3953955625 -1.5383271348 -2.1455241079
H -5.0739195714 0.122162801 -2.6603784535
*
