! pbe def2-sv(p) def2/J RI DEFGRID1 loosescf d4 GCP(DFT/SV(P)) printgap
%output
    printlevel normal
end
* xyz 0 1
C 2.5496500907 0.5699346224 -2.7008824793
C 1.923281381 -0.7137410407 -2.193724326
O 2.5165666472 -1.1454175649 -0.9571330747
P 2.123386632 -0.6145253288 0.4875485132
S 2.3837345597 1.2901152763 0.8992988977
O 2.9762795838 -1.5871906909 1.399532502
C 4.2898101705 -1.2370769927 1.8788806001
C 5.3016851949 -1.2034397243 0.7533083812
S 0.1998811339 -1.4326981609 0.8077265585
C -0.45288352 -0.1591043544 1.940307102
S -2.2352737445 0.0821237209 1.7471882327
P -2.2728962786 0.5598154749 -0.302647829
S -0.7651926821 1.5452059504 -1.0922203944
O -3.6834138146 1.2614569315 -0.5268222347
C -3.8729271435 2.6830214132 -0.420248723
C -3.6679362567 3.1812713193 0.9957559133
O -2.5492512002 -0.8795376249 -0.8940663462
C -2.3722607741 -1.2173806644 -2.2878813029
C -1.8177163464 -2.6255602178 -2.3692372735
H 2.319981601 1.3932509147 -2.0271065903
H 3.6282139076 0.4609754721 -2.7737799764
H 2.1426381989 0.802247366 -3.6796766466
H 2.1065882882 -1.5442905039 -2.8780266266
H 0.8469309306 -0.5832239422 -2.0523425596
H 4.2301599381 -0.2622176944 2.3735819788
H 4.5171963466 -2.0139084003 2.6097072664
H 5.2962574609 -2.1473432975 0.2148786678
H 5.0494130319 -0.4018123789 0.0599619944
H 6.2913364212 -1.0214446864 1.1603413722
H 0.0750566703 0.7777433857 1.7374294489
H -0.3052894637 -0.4778583837 2.9692770066
H -3.176978415 3.1761096951 -1.1066882585
H -4.8988042169 2.8356644846 -0.7578831061
H -3.9395644398 4.2305845926 1.05111582
H -4.2798219708 2.6103040284 1.6895781642
H -2.6218476552 3.0732313269 1.2809252293
H -3.3507072175 -1.1436322358 -2.7672782592
H -1.6923554011 -0.48904658 -2.7446561752
H -0.8587833091 -2.6826743858 -1.8595671715
H -2.5029013294 -3.319392973 -1.8916126959
H -1.6908420356 -2.9001621409 -3.4112633488
*
