  16
  -19.8840571400000       0.321956330984337      !mtd6
 C         -1.3377945222        0.7772433929       -0.4103311206
 C         -1.5392809664       -0.6680707024        0.0377071624
 C         -0.1230421300       -1.2403226329        0.0236758209
 C          0.7967800004       -0.0739215846        0.4451919748
 C         -0.0739991331        1.1998423708        0.3395277702
 O          1.9828872078       -0.0033531052       -0.3185076890
 H         -2.1886943365        1.4128680100       -0.1730254114
 H         -1.1739106115        0.8115905448       -1.4882880750
 H         -1.9398551077       -0.6878936890        1.0518714215
 H         -2.2141388056       -1.2215702591       -0.6125924155
 H         -0.0114428040       -2.1022960823        0.6780811172
 H          0.1455952792       -1.5504317292       -0.9878719765
 H          1.1570378196       -0.2092310438        1.4689677349
 H         -0.3326449596        1.5483022632        1.3388448147
 H          0.4721362634        1.9968508287       -0.1633296081
 H          1.7482707972        0.1173534397       -1.2496958605
  16
  -19.8840570400000       0.321922263533608      !md2
 C         -1.4924111879        0.7648796716        0.0783456002
 C         -1.3884187790       -0.6653266966       -0.4450607533
 C         -0.1524745416       -1.2090405677        0.2727724099
 C          0.7984394596       -0.0014534735        0.4456222462
 C         -0.0415488478        1.2421694526        0.0831384999
 O          1.9822146157       -0.1093656423       -0.3173186917
 H         -1.8865792043        0.7585072045        1.0952427164
 H         -2.1318114284        1.3945436767       -0.5376125739
 H         -2.2785924636       -1.2551278391       -0.2350629794
 H         -1.2311936741       -0.6539476493       -1.5245025136
 H         -0.4305211480       -1.5968999025        1.2521464332
 H          0.3404436999       -2.0093075638       -0.2776310277
 H          1.1604557589        0.0576530940        1.4760184358
 H          0.1291530056        2.0636612722        0.7757801784
 H          0.2445683316        1.5798472122       -0.9147458898
 H          1.7461098561       -0.1666896912       -1.2541812040
  16
  -19.8828760100000       9.225442462318387E-002 !md7
 C         -1.5013743566        0.7544213832        0.0815179136
 C         -1.3908844263       -0.6710935019       -0.4523095518
 C         -0.1339277464       -1.2107553281        0.2331264314
 C          0.7830948428        0.0086164629        0.4583803819
 C         -0.0544711189        1.2391534967        0.0535152526
 O          1.9515950697       -0.1455160973       -0.3259836136
 H         -1.8713385000        0.7402816948        1.1078080492
 H         -2.1601137811        1.3801868022       -0.5178937533
 H         -2.2696605236       -1.2742227247       -0.2326325545
 H         -1.2463529474       -0.6475926539       -1.5329297197
 H         -0.3861302248       -1.6675486602        1.1891236381
 H          0.3893436708       -1.9471293769       -0.3743801120
 H          1.0724384255        0.0722249793        1.5177728960
 H          0.1171468619        2.0915194643        0.7089194329
 H          0.2192333063        1.5169557955       -0.9659468791
 H          2.5355494950        0.6111420462       -0.1848290315
  16
  -19.8828755200000       9.220660167602383E-002 !mtd5
 C         -1.3454700062        0.7835138514       -0.4129187087
 C         -1.5480943923       -0.6579470773        0.0458541593
 C         -0.1359308752       -1.2330276213       -0.0150900273
 C          0.7790345550       -0.0838673580        0.4554720356
 C         -0.0538042632        1.2038296486        0.2916400777
 O          1.9604026488        0.0329046689       -0.3157293645
 H         -2.1821978616        1.4303097354       -0.1564615624
 H         -1.2062099811        0.8075335567       -1.4941959599
 H         -1.9142457256       -0.6739576984        1.0734940542
 H         -2.2474746432       -1.2070041751       -0.5820740163
 H         -0.0196631178       -2.1304003249        0.5904353941
 H          0.1189945327       -1.4697037894       -1.0496738798
 H          1.0562425745       -0.2214103175        1.5111614131
 H         -0.2728696895        1.6316416766        1.2689534316
 H          0.5174889318        1.9306713666       -0.2832224811
 H          2.4901081703       -0.7689865066       -0.2156766147
  16
  -19.8828080300000       8.585107935565454E-002 !md6
 C         -1.4751016376        0.7739305637        0.0006499365
 C         -1.3315302334       -0.6574447873       -0.5070492518
 C         -0.1811954203       -1.2018052480        0.3372997574
 C          0.7953537688       -0.0166543355        0.4888246822
 C         -0.0272207092        1.2417789090        0.1504409510
 O          1.8864272287       -0.0771066127       -0.4125321207
 H         -1.9706802763        0.7728213494        0.9726876678
 H         -2.0429181029        1.4081599904       -0.6772241048
 H         -2.2436020740       -1.2408886977       -0.3951042507
 H         -1.0458006453       -0.6484803136       -1.5595916525
 H         -0.5478794465       -1.4978562685        1.3203635972
 H          0.3036219947       -2.0595728284       -0.1262932962
 H          1.1865490889        0.0306867767        1.5154282541
 H          0.0867016509        2.0176843449        0.9043170954
 H          0.3508208913        1.6257008152       -0.7977884194
 H          2.4298280679       -0.8503025342       -0.2111636948
  16
  -19.8828075700000       8.580929982719222E-002 !md7
 C         -1.2827800405        0.7717590406       -0.4643928177
 C         -1.5223531041       -0.6731773522       -0.0376813878
 C         -0.1093614447       -1.2445656817        0.0858513589
 C          0.7959386028       -0.0631797634        0.4857796719
 C         -0.1011158210        1.1898275503        0.4079741319
 O          1.8833927868       -0.0240448456       -0.4212297672
 H         -2.1544359610        1.4072467374       -0.3187566418
 H         -0.9951582821        0.8031633210       -1.5160110589
 H         -2.0203981940       -0.6934891845        0.9328204685
 H         -2.1285006233       -1.2293710948       -0.7499242535
 H         -0.0496580005       -2.0630329986        0.7999106073
 H          0.2436757689       -1.6054624828       -0.8808906910
 H          1.1889042891       -0.1926825466        1.5046367159
 H         -0.4494914862        1.4490827088        1.4080166339
 H          0.4388064403        2.0408340188       -0.0044531699
 H          2.4807986893        0.6958260950       -0.1794172591
