  26
        -29.90213575
 C          6.4268522898        0.4569224906       -0.2597861006
 C          5.0541202845        0.7197293987        0.3481129569
 C          3.9824021753       -0.1854996008       -0.2550583259
 C          2.6048012541        0.0719700296        0.3507651425
 C          1.5342281159       -0.8326457302       -0.2548383248
 C          0.1587422270       -0.5711310932        0.3535151344
 C         -0.9122445742       -1.4719863215       -0.2567138674
 C         -2.2826943447       -1.2511488615        0.3509349317
 Br        -2.9930919117        0.5440555789       -0.0659182021
 H          7.1729577416        1.1122864136        0.1827342346
 H          6.7285785568       -0.5738266521       -0.0875172670
 H          6.4076419411        0.6327780452       -1.3330156894
 H          4.7777435817        1.7635771819        0.1831613493
 H          5.0978221351        0.5563998079        1.4273263653
 H          3.9385658371       -0.0209429627       -1.3342302994
 H          4.2596993974       -1.2295662756       -0.0913690977
 H          2.6493997885       -0.0925332506        1.4299842150
 H          2.3287804103        1.1164996190        0.1882272346
 H          1.8102515186       -1.8769881241       -0.0921199433
 H          1.4902236244       -0.6654899868       -1.3333518863
 H          0.2027247119       -0.7386212566        1.4325236760
 H         -0.1113351358        0.4750976850        0.1904923741
 H         -0.6479381809       -2.5186625721       -0.0861995840
 H         -0.9570227845       -1.3091312938       -1.3357785381
 H         -3.0205709647       -1.9463093432       -0.0447314756
 H         -2.2591833588       -1.3053022601        1.4378689100
