! pbe def2-sv(p) def2/J RI DEFGRID1 loosescf d4 GCP(DFT/SV(P)) printgap
%output
    printlevel normal
end
* xyz 0 1
C 4.3561053298 -0.1094066825 -2.3086470225
C 4.511003375 0.6213535638 -0.9905615377
O 3.8102648637 -0.0343437142 0.0796332099
P 2.2258303874 -0.1425680487 0.1300797646
S 1.2777281163 1.4891409151 -0.4379190138
O 1.9720248593 -0.5937270641 1.6260157507
C 1.817531848 0.3468629648 2.7066229143
C 3.1429182276 0.9525963423 3.1194736704
S 1.8077414024 -1.9605989617 -0.8395218469
C 0.0503557399 -1.7050685374 -1.1966359826
S -0.9497724485 -1.3971557986 0.2902979816
P -2.0669565181 0.3157809335 -0.3547828889
S -1.842054445 0.8421884982 -2.2225772527
O -1.7939611449 1.470174142 0.6751553056
C -1.9521569214 1.3253662226 2.1094765573
C -3.3317231913 1.7624593906 2.5562563791
O -3.5525140291 -0.1135964874 0.0263961006
C -4.2445292897 -1.1305265392 -0.7242226197
C -5.71335262 -1.0613196682 -0.3582253129
H 4.6223247266 -1.1571421417 -2.1937223521
H 3.3234295083 -0.0451653476 -2.6506308322
H 4.9999911186 0.3489532244 -3.0524724057
H 4.1336046221 1.6458037226 -1.0736833852
H 5.5488553385 0.632360299 -0.6549353466
H 1.1188978077 1.1275327507 2.386535363
H 1.3739644228 -0.2450172938 3.5085295748
H 3.8627652099 0.1663468003 3.3295499351
H 3.5315069617 1.580075747 2.31908662
H 2.9989666898 1.5597546213 4.0078084782
H -0.289711141 -2.6278982099 -1.6600785777
H -0.0791568407 -0.8556213135 -1.8740692923
H -1.7536183267 0.2848167104 2.3831927552
H -1.179322879 1.9735285207 2.5283251196
H -4.0912127425 1.1116386797 2.1328873378
H -3.3807255887 1.7173090047 3.6397748275
H -3.5209098673 2.7813039906 2.2294966486
H -4.0866800102 -0.942033736 -1.7913023004
H -3.8123099767 -2.1005473805 -0.46246799
H -6.2545782694 -1.8170373048 -0.9177426756
H -5.8421375463 -1.2407284472 0.7052063848
H -6.1120299378 -0.0807517802 -0.6026839963
*
