! pbe def2-sv(p) def2/J RI DEFGRID1 loosescf d4 GCP(DFT/SV(P)) printgap
%output
    printlevel normal
end
* xyz 0 1
C 4.4144879643 -1.5813716885 -0.8382535915
C 4.5599691019 -0.0892766411 -0.6204473335
O 3.4704429246 0.4704771161 0.1342235358
P 1.9777259513 0.5281383323 -0.4210880595
S 1.8298511571 0.9209219874 -2.3292751633
O 1.3419229084 1.6306900561 0.5119762129
C 1.4561752193 1.5977788068 1.9554252137
C 2.5387866807 2.5446560174 2.4292810416
S 1.1797785669 -1.3310431191 0.2365309331
C -0.0125344878 -1.6806955954 -1.0946807608
S -1.6973176791 -1.9273370712 -0.4924391838
P -2.0751912195 0.0595092489 0.1604123941
S -1.4682979701 1.4873207329 -1.0357918616
O -1.4518837126 0.1891228975 1.6061615782
C -1.9057095028 -0.586629417 2.7529232666
C -0.9366872963 -1.7057880988 3.0757157661
O -3.6329077426 0.0487131825 0.4798784871
C -4.6331798338 0.3431732539 -0.5113794479
C -4.6973674089 -0.7105747717 -1.5976894849
H 4.2306911402 -2.0877399765 0.105841708
H 3.584530077 -1.7784424141 -1.5148197178
H 5.3269396192 -1.9651898773 -1.2830703741
H 4.6157908202 0.434350162 -1.5796875228
H 5.4383364942 0.1451276392 -0.017275927
H 0.4702418384 1.9014645266 2.3135875659
H 1.6617506368 0.5701969468 2.2691236711
H 2.3403562394 3.5477462026 2.0613528793
H 2.5495494165 2.5547263689 3.5147027755
H 3.508778363 2.2213114629 2.0613050631
H 0.2744630945 -2.61527754 -1.5697229972
H 0.0137712415 -0.8515985556 -1.8073862927
H -1.9553442059 0.1408563016 3.5646580633
H -2.9045100082 -0.9720442398 2.5444054896
H -0.8995402038 -2.433033406 2.2687506078
H 0.0630012075 -1.3100740583 3.2305744879
H -1.2688502243 -2.2003854332 3.9829702735
H -5.5592791321 0.3870321221 0.0636766138
H -4.4133827258 1.3255796696 -0.9405145378
H -5.5558857681 -0.516426801 -2.2325958302
H -3.7954490557 -0.6734941605 -2.2067467348
H -4.7866667654 -1.70185814 -1.1605319002
*
