! pbe def2-sv(p) def2/J RI DEFGRID1 loosescf d4 GCP(DFT/SV(P)) printgap
%output
    printlevel normal
end
* xyz 0 1
C 3.7934225119 -3.6286656689 0.2376616877
C 4.0717279217 -2.6473334815 -0.8892700557
O 2.8429811088 -2.2026449563 -1.5020369113
C 2.2149008563 -1.1738483485 -0.9825503979
O 2.6036933699 -0.5330241754 -0.0268432219
C 0.9178773359 -0.8802106648 -1.702512752
C 0.5047332713 0.5769086342 -1.5015987868
H 0.9831171412 1.242537581 -2.2198595948
C 0.7715571061 1.0754501957 -0.0958799094
O 0.1368637886 0.6278244922 0.8482390037
O 1.5756403272 2.095710752 -0.0526592945
C 1.8462784445 2.7158873994 1.2244702033
C 3.1019115736 2.1307520722 1.8470652651
S -1.2992288472 0.7758133691 -1.7136672869
P -2.1172502022 0.2339864222 0.1761645687
S -2.449759777 1.4620250731 1.6803991223
O -3.4942489637 -0.0380225533 -0.6163564866
C -4.7295721509 -0.2915471762 0.0541141254
O -1.7505577317 -1.2815889362 0.5653103922
C -1.0760288271 -1.6741773865 1.7583044551
H 3.2036870334 -4.4640526099 -0.1293764415
H 4.7345823269 -4.0001650871 0.6291452219
H 3.2496033947 -3.1358628332 1.0407906824
H 4.6217610851 -3.1209889978 -1.7021264538
H 4.6126953686 -1.7724060387 -0.518547607
H 0.1611517232 -1.5441647167 -1.2726510386
H 1.0059819979 -1.1192070765 -2.760759264
H 1.9707855868 3.7733808004 0.9889979749
H 0.9768987637 2.5701382791 1.8724744243
H 3.279349376 2.6045265974 2.8066335979
H 2.9790275174 1.0601573463 1.9905102391
H 3.9542634101 2.2977410856 1.195137861
H -4.8268349419 0.3603559725 0.9255778535
H -4.7742445546 -1.3346813445 0.3657184432
H -5.5109441324 -0.0740797311 -0.6699571559
H -1.4744703878 -2.6521053127 2.0184981563
H -1.2692419929 -0.9532115301 2.5543612854
H -0.0026853899 -1.7254458963 1.5788320689
*
