! pbe def2-sv(p) def2/J RI DEFGRID1 loosescf d4 GCP(DFT/SV(P)) printgap
%output
    printlevel normal
end
* xyz 0 1
C 3.8637499119 -3.7809499172 0.5192842
C 2.87010321 -2.685176769 0.849355872
O 2.8725637774 -1.7411636757 -0.2423889369
C 1.8800236102 -0.8981890738 -0.3427537677
O 0.9582730777 -0.8421250352 0.4584578801
C 1.9769642041 -0.0064858587 -1.5516095623
C 0.7981107303 0.9498041612 -1.6060366263
H 0.8141652913 1.5385247918 -2.5268019993
C 0.7426165841 1.9053579213 -0.4245340234
O 1.5874577335 1.9417734849 0.4425398377
O -0.3092827636 2.6883353906 -0.5011903227
C -0.5118167482 3.6861719616 0.5166165436
C 0.0911251048 5.013334258 0.0855411717
S -0.8052131543 0.0671211084 -1.7442297853
P -1.4332828981 -0.5284251958 0.2071464907
S -1.3892339483 -2.4223891907 0.7441286069
O -1.0935882827 0.6011579514 1.275241762
C -0.4329615102 0.3528217673 2.5163200184
O -2.9758715268 -0.0770757772 0.0564590294
C -3.8639414086 -0.75886343 -0.8277392145
H 3.5660850233 -4.2939517752 -0.3902136091
H 4.8521919739 -3.3548850929 0.3776152024
H 3.8920621684 -4.4933676085 1.3367977296
H 3.1483455051 -2.1477188308 1.7607437184
H 1.8537797871 -3.0741788495 0.9714198381
H 2.0024366561 -0.6285418708 -2.4474693377
H 2.9141096101 0.5503800805 -1.4875450443
H -1.5950789631 3.75184229 0.6244154603
H -0.0624705563 3.3320646071 1.4482528432
H 1.171376103 4.924011089 -0.0026452272
H -0.3209156386 5.3158761351 -0.8729611797
H -0.1411126439 5.7677756537 0.8297583052
H 0.5840645957 0.7423640787 2.4560918806
H -0.4037010912 -0.7177149058 2.7261874541
H -1.0057861955 0.8741332681 3.2804886136
H -4.856476161 -0.3807318508 -0.5963567726
H -3.8151554309 -1.8355153668 -0.6504300945
H -3.6022973303 -0.5435886722 -1.8649206156
*
