! pbe def2-sv(p) def2/J RI DEFGRID1 loosescf d4 GCP(DFT/SV(P)) printgap
%output
    printlevel normal
end
* xyz 0 1
C 5.3048416659 -1.3920456064 -1.1708023253
C 3.8887616881 -1.7029027169 -1.6161773504
O 2.9818857529 -1.7120958558 -0.4960593333
P 2.1922696654 -0.4205393164 -0.0161518178
S 3.2422486974 1.1706283622 0.4583639581
O 1.3040416533 -1.022279986 1.144731673
C 1.6932680784 -0.9178215598 2.5313577883
C 2.9056335759 -1.7738011859 2.828443428
S 0.7714793986 -0.1459762362 -1.5642935971
C 0.2624779288 1.5199090759 -1.0688504208
S -0.7312967604 1.5218560954 0.4416562411
P -2.4125088882 0.4933877321 -0.3889453216
S -2.7716758108 0.8707013501 -2.2720344367
O -3.5738734084 0.8680541846 0.6284283908
C -4.1648176815 2.1855453971 0.6353091851
C -5.4706668562 2.10379291 1.3989699845
O -2.2100252768 -1.0390967901 -0.1003082403
C -2.0990365131 -1.5754536601 1.2445812434
C -1.4419839922 -2.9357778461 1.1455729269
H 5.9680631346 -1.444569005 -2.0281654273
H 5.3568064244 -0.3926841853 -0.7443779293
H 5.627774606 -2.1105746712 -0.4226583481
H 3.8152051335 -2.7091608848 -2.0329971507
H 3.539858478 -0.9774831802 -2.3570351918
H 1.8937134277 0.1342685323 2.7577630765
H 0.8130856397 -1.2552074574 3.0798555174
H 3.7642212122 -1.3963127947 2.2740460669
H 3.1253637319 -1.7343286509 3.8906266488
H 2.722030188 -2.8030435175 2.5321040016
H -0.328965345 1.9234695938 -1.8904937489
H 1.1447247251 2.1289897661 -0.8689476786
H -3.4610210417 2.87095464 1.1148377575
H -4.3233440997 2.5001409881 -0.4012947682
H -5.9303600783 3.0862942842 1.4218808327
H -6.1441764441 1.4044339978 0.9117235273
H -5.2871890085 1.7682342534 2.4153706088
H -1.5058274717 -0.8803236123 1.8464221599
H -3.1072944037 -1.6409669477 1.6572024748
H -1.3988092244 -3.384057632 2.1330772684
H -2.0172031974 -3.5763794521 0.4832789273
H -0.4348691048 -2.8373611836 0.7486376296
*
