! pbe def2-sv(p) def2/J RI DEFGRID1 loosescf d4 GCP(DFT/SV(P)) printgap
%output
    printlevel normal
end
* xyz 0 1
C 4.4089025042 -3.0890990013 -2.2403231452
C 3.0986625578 -3.1793214312 -1.4831705418
O 2.8563681472 -1.9044172674 -0.856205843
C 1.900473482 -1.8283212042 0.0420844351
O 1.2177797896 -2.7638974973 0.3987341113
C 1.7259791976 -0.4089792388 0.550474199
C 1.0352228364 0.4175904349 -0.5402299668
H 1.7169232714 0.5708913937 -1.3801832939
C 0.5703150986 1.758377628 -0.002550933
O -0.6018452076 2.0808795457 0.0115729333
O 1.5586576261 2.4744575385 0.4459995147
C 1.2682020312 3.768290032 1.0230330837
C 1.1696619648 4.8331022687 -0.0562438594
S -0.4162337221 -0.4305479144 -1.2576543932
P -1.8896261676 -0.1110964692 0.2369560727
S -1.4384972828 0.1765334994 2.1327103436
O -3.0315852687 0.785551422 -0.3979339509
C -3.4081186313 2.0895075164 0.0508387446
O -2.7037216338 -1.4805864014 0.0412402146
C -2.1980157831 -2.7139380775 0.5565815637
H 4.3507706435 -2.307463084 -2.9913778515
H 5.2209155635 -2.8606181462 -1.5565782617
H 4.6073931858 -4.0384221091 -2.7263123897
H 3.1253507525 -3.9483855245 -0.705047147
H 2.257867459 -3.3916716211 -2.1506496266
H 2.6976531038 0.0340403489 0.7660256355
H 1.1158175333 -0.4379498699 1.4552785588
H 0.3369699697 3.6936893043 1.5908357731
H 2.10792422 3.9535892079 1.692211381
H 0.3334744269 4.6228813603 -0.7190153215
H 1.0121869333 5.7994934056 0.4108769305
H 2.086027305 4.8621126021 -0.6388949711
H -2.9405370372 2.8359684882 -0.5881593727
H -3.0946292405 2.2417327648 1.0848728994
H -4.492192253 2.1326240596 -0.028006594
H -2.1729130351 -2.6765549095 1.6469740321
H -1.1912665911 -2.9158937764 0.1849770768
H -2.8899017672 -3.4792524529 0.2159503781
*
