  16
        -19.86800570
 C          1.2760557387        1.0788701010        0.8000154581
 C          0.7060174680        0.2738195725       -0.3760092410
 C          1.5055871951       -1.0075207747       -0.5958955448
 C         -0.7660025322        0.0342895219       -0.1027574917
 O         -1.6134057555        0.7731755829       -0.5707261908
 C         -1.1214090642       -1.1191685683        0.7839799850
 H          2.3008208825        1.3665621423        0.5816268666
 H          0.6891956448        1.9800898474        0.9635592213
 H          1.2687942521        0.4868826229        1.7114188930
 H          0.7607970048        0.8989725066       -1.2741145396
 H          1.5408024776       -1.6081783162        0.3078387197
 H          2.5246924324       -0.7515227287       -0.8743037991
 H          1.0714595944       -1.5984942385       -1.3985733390
 H         -0.9603820546       -2.0444534506        0.2352074970
 H         -2.1671614976       -1.0554196869        1.0720279607
 H         -0.4877590451       -1.1328044468        1.6653670532
