! r2scan-3c def2/J RI DEFGRID2 scfconv6 printgap
%output
    printlevel normal
end
%cpcm
    smd true
    smdsolvent "water"
end
* xyz 0 1
C 4.906430676 -2.7408485089 -1.653701542
C 3.997920999 -1.5293619817 -1.7077155347
O 3.1008508045 -1.5979097978 -0.5800263658
P 2.2952703503 -0.3250950593 -0.0841236429
S 3.3649516955 1.3022519483 0.1770967797
O 1.5478649691 -0.8904231604 1.1892434142
C 2.0665471883 -0.7068628858 2.5230181181
C 3.312003529 -1.5371680615 2.7482403729
S 0.7115307544 -0.1763013901 -1.4775833009
C 0.2034489311 1.4985954322 -1.0111068751
S -0.5949441535 1.5628260524 0.6144435337
P -2.483641673 0.7934313917 0.0387085516
S -2.9281815959 1.0102057586 -1.8636304492
O -3.3145878121 1.5915424816 1.1205604383
C -4.6156441692 1.1894216998 1.6038162709
C -5.6599394501 1.1864082464 0.5063837797
O -2.6221583911 -0.7014422869 0.5709118301
C -2.3875685245 -1.8809688709 -0.2226325088
C -1.3149940717 -2.7329318533 0.4253597974
H 5.5007977657 -2.7246460586 -0.7446793431
H 4.3116183627 -3.6492158318 -1.6701168481
H 5.5678681744 -2.7276200741 -2.5137118639
H 3.3971956158 -1.5200966333 -2.621152525
H 4.5671893423 -0.5957705243 -1.6445218815
H 2.2733536292 0.3577990415 2.6715812111
H 1.2446055358 -1.0160370242 3.1696041962
H 3.6286346368 -1.4414388331 3.782058091
H 3.1134070288 -2.5814356527 2.5226908152
H 4.1110190919 -1.1819004318 2.0983676045
H -0.4960159793 1.8390865576 -1.775358513
H 1.0832216227 2.1399956434 -0.9578902146
H -4.5239691229 0.2018838052 2.0611446691
H -4.8414685852 1.9341358848 2.3688799373
H -6.6305785883 0.9510123103 0.9315066839
H -5.7043037072 2.1603475056 0.0246371555
H -5.4109413336 0.4417380298 -0.248661551
H -3.3414123235 -2.4127908069 -0.254843436
H -2.1095310428 -1.5845521546 -1.2392046991
H -0.3674889156 -2.20089565 0.4558491194
H -1.6065410171 -2.9878043252 1.4403814749
H -1.1894056772 -3.6422495381 -0.153130141
*
