! pbe def2-sv(p) def2/J RI DEFGRID1 loosescf d4 GCP(DFT/SV(P)) printgap
%output
    printlevel normal
end
* xyz 0 1
C 2.1846798494 2.3787322311 -0.7608776156
C 2.0894775502 0.997056641 -1.3699428368
O 1.3573278957 0.0656872002 -0.5428949157
P 1.7315319316 -0.2411826543 0.985865518
S 1.0177368531 0.9813046244 2.3310627814
O 3.3084399105 -0.2865744451 1.1098899377
C 4.1604827654 -1.2360848212 0.4131715651
C 5.4938717642 -0.565299103 0.1528910751
S 1.172092014 -2.2811291828 1.0863551827
C -0.4079347084 -2.2595734397 0.1898643553
S -1.6097631043 -1.0746927624 0.8416713015
P -1.7470345216 0.2599542905 -0.8252162601
S -0.9864660861 -0.3621920456 -2.5147281366
O -1.1372794468 1.6515972709 -0.4047324254
C -1.6753113823 2.4553206336 0.6739022834
C -2.5074019627 3.5909608387 0.1167219694
O -3.3007556765 0.6088706407 -0.82686136
C -4.3775353399 -0.3455181447 -0.805598757
C -4.2995347439 -1.3520063642 -1.9344240357
H 2.7225355921 3.0323498692 -1.440686667
H 1.1889674589 2.7795478053 -0.5881864813
H 2.7128548695 2.3349235914 0.1917401068
H 3.0834500505 0.5844808528 -1.5564689823
H 1.5168599754 1.0058813934 -2.3004210775
H 4.2729376996 -2.1036213203 1.0670727639
H 3.6746684253 -1.5512386917 -0.5139930201
H 6.1609399232 -1.2772689399 -0.3224934425
H 5.3713211556 0.2988652164 -0.494924328
H 5.929131243 -0.2359577992 1.0919642763
H -0.8168192793 -3.2588469698 0.3200102404
H -0.2339202424 -2.0336181631 -0.8665126174
H -2.2615871081 1.8166285997 1.3395706461
H -0.8029215375 2.820571085 1.2204408485
H -2.8562603481 4.2078208869 0.9387609773
H -1.908053699 4.1963302543 -0.5576902159
H -3.3613073336 3.1981865764 -0.4291831023
H -4.3689800262 -0.8501130709 0.1646381979
H -5.270331168 0.2767271942 -0.8899458057
H -5.1888432507 -1.9738076874 -1.9215934649
H -4.2291901573 -0.8430214256 -2.8927611153
H -3.4215844564 -1.9852458032 -1.8171775298
*
