! pbe def2-sv(p) def2/J RI DEFGRID1 loosescf d4 GCP(DFT/SV(P)) printgap
%output
    printlevel normal
end
* xyz 0 1
C 4.9489766206 0.4641508474 -1.8258857672
C 4.1203358237 -0.7953236237 -1.9828516692
O 3.2966160526 -1.0416780953 -0.8300301937
P 2.0076186319 -0.1451905897 -0.4882031203
S 1.0553375874 0.4619760839 -2.0831211656
O 2.5132346117 1.0498963313 0.4125962709
C 3.1442000285 0.8643670254 1.7037565004
C 2.843741162 2.0843622415 2.5479577768
S 1.0835275515 -1.5475152667 0.7900666213
C -0.2546342789 -2.0753107158 -0.3281483881
S -1.9170608862 -1.7551902049 0.3124827376
P -2.0074501071 0.3758407991 0.2656811362
S -0.588122971 1.4220611273 1.1193701024
O -3.4657135586 0.650020042 0.8258658255
C -4.0242509581 0.0898542207 2.0295438645
C -3.1221677262 0.2514796484 3.2346421049
O -2.1201288556 0.8211922067 -1.2397019133
C -2.8321897139 0.1623337979 -2.3144817592
C -4.292192819 -0.0917282875 -2.0070131076
H 4.2912746514 1.3282943748 -1.729158337
H 5.5775029491 0.397809549 -0.9414318502
H 5.5756853566 0.594810867 -2.7024971733
H 4.74518095 -1.6864500128 -2.0562478513
H 3.4716193518 -0.7206623123 -2.8616199265
H 2.7446608482 -0.0431797041 2.1663006797
H 4.2161593315 0.7420307149 1.5316612741
H 3.2910183213 1.9608590282 3.5286028963
H 3.2435495195 2.9754234754 2.0728708281
H 1.7669719665 2.2000337381 2.6507665987
H -0.1938305608 -3.1552472239 -0.4355711424
H -0.1209677161 -1.5687921847 -1.287605272
H -4.9596899443 0.6377845552 2.1557681662
H -4.2337342556 -0.9671964046 1.8440593956
H -2.8656354522 1.2984349865 3.3793917483
H -3.6309462122 -0.1213685686 4.1177026329
H -2.1993626014 -0.3098633965 3.0926053986
H -2.7081641404 0.8568698002 -3.1472164976
H -2.3118977602 -0.7710381109 -2.5455948374
H -4.3945350138 -0.8447859066 -1.2288977664
H -4.7712701372 0.8266599895 -1.6781033166
H -4.7801486315 -0.4478871074 -2.9091935249
*
