  10
        -15.46424459
 C         -0.6930920641       -0.5954126306       -0.3110794099
 C          0.7077997233       -0.5882970948        0.3078170909
 O          1.4781865348        0.5053269640       -0.1386045147
 O         -1.4468891691        0.5311729537        0.0843133602
 H         -1.2071159920       -1.5267033936       -0.0488842252
 H         -0.6108422484       -0.5282503545       -1.3980490767
 H          1.2494026891       -1.4879789367        0.0112886814
 H          0.6299073511       -0.5661973913        1.4047681767
 H          0.9247924437        1.3001029202       -0.0944985516
 H         -1.6581966800        0.4615112050        1.0260321178
  10
        -15.46392355
 C         -0.6082539049       -0.0085986702       -0.4690780096
 C          0.6081933670        0.0086129036        0.4689789030
 O          1.8277222404       -0.0187767220       -0.2351930145
 O         -1.8276717980        0.0187640952        0.2352625586
 H         -0.6239611844       -0.9393043833       -1.0425387771
 H         -0.5376965714        0.8319049266       -1.1716523868
 H          0.5376347845       -0.8318375238        1.1716208054
 H          0.6237531182        0.9393863814        1.0423606686
 H          1.9027342509       -0.8530308035       -0.7189406033
 H         -1.9025437120        0.8529122247        0.7192273593
  10
        -15.46365632
 C         -0.6839365022       -0.6093754590       -0.3172189149
 C          0.6941439576       -0.5694545614        0.3430202402
 O          1.4793986139        0.5013253781       -0.1264041636
 O         -1.4081384894        0.5256914635        0.1187170176
 H         -1.1934344725       -1.5339217541       -0.0215272956
 H         -0.5617236358       -0.5929800939       -1.4071975990
 H          1.2454295447       -1.4803586540        0.1046734084
 H          0.5640012636       -0.4974648068        1.4306684976
 H          0.9744761727        1.3179279499        0.0020847783
 H         -2.2815195710        0.5316625582       -0.2941324726
  10
        -15.46330239
 C         -0.6088105014        0.0043760181       -0.4681992550
 C          0.6090738586        0.0217233177        0.4676849849
 O          1.8266813147       -0.0761872276       -0.2329915843
 O         -1.8275142261       -0.0385365933        0.2360270991
 H         -0.5813819143       -0.9012311572       -1.0787663817
 H         -0.5809183353        0.8763076781       -1.1366060857
 H          0.5698098249       -0.8488228336        1.1266751091
 H          0.5934614984        0.9290602651        1.0876274538
 H          1.9285127992        0.6922817659       -0.8123517883
 H         -1.9194009680        0.7624539903        0.7713659793
  10
        -15.46308556
 C         -0.7187521310       -0.5982354427       -0.2617900370
 C          0.7109413537       -0.5953529876        0.2899007018
 O          1.4634077176        0.5281609671       -0.1048352878
 O         -1.4561775103        0.5526023470        0.0793629410
 H         -1.2271006609       -1.5048551463        0.0940341730
 H         -0.7011592671       -0.6139361903       -1.3546343572
 H          1.2064204324       -1.5246515931       -0.0225386418
 H          0.6944256391       -0.5595776695        1.3821157339
 H          1.4482544838        0.6012411081       -1.0691593465
 H         -1.4425341949        0.6693705422        1.0395442737
  10
        -15.46261160
 C         -0.5902916365        0.0756805556       -0.4638200857
 C          0.6006735144       -0.0688059983        0.4888748103
 O          1.7808819535        0.0333168714       -0.2779436969
 O         -1.8287226952        0.0153307162        0.2006247710
 H         -0.5172707643       -0.6904335079       -1.2454867023
 H         -0.5466159139        1.0564835014       -0.9421679087
 H          0.5535402558       -1.0444287703        0.9926552478
 H          0.5507527349        0.7237550392        1.2462984559
 H          2.5490059678       -0.0295809448        0.3063742140
 H         -1.9537306645       -0.8699139197        0.5710827978
  10
        -15.46209230
 C         -0.5835847386       -0.0092752673       -0.4918585545
 C          0.5835864671        0.0092076674        0.4918674588
 O          1.7838339381       -0.0187385989       -0.2480367182
 O         -1.7838335521        0.0187988881        0.2480298301
 H         -0.5139212460       -0.9173957536       -1.1036777931
 H         -0.5023643481        0.8637007424       -1.1516709084
 H          0.5024179752       -0.8638230329        1.1516100895
 H          0.5138295527        0.9172707318        1.1037640063
 H          2.5338452048       -0.0046408955        0.3623761351
 H         -2.5338338632        0.0047367451       -0.3623982970
  10
        -15.46163741
 C         -0.7030383812       -0.5888890564       -0.3042317479
 C          0.6949135279       -0.5835101109        0.3318245491
 O          1.5076590945        0.4755459851       -0.1306405089
 O         -1.5010043938        0.5017931481        0.1074727847
 H         -1.2304916472       -1.4871641471        0.0221666298
 H         -0.6063766517       -0.6074729616       -1.3952278863
 H          1.2099172314       -1.5033783199        0.0485764978
 H          0.5980655024       -0.5489883778        1.4223999101
 H          1.2220822689        1.3006887593        0.2847907601
 H         -1.2020124847        1.3031015505       -0.3437552562
  10
        -15.46054799
 C         -0.6947295756       -0.5496727929       -0.3283686952
 C          0.6889253463       -0.5799759904        0.3232707876
 O          1.4550445263        0.5034758206       -0.1598735835
 O         -1.4957983819        0.5310716698        0.0838304136
 H         -1.2009158278       -1.5027568941       -0.1230954385
 H         -0.5766606421       -0.4304714696       -1.4070391429
 H          1.1670979835       -1.5340574954        0.0663058866
 H          0.5820203594       -0.5174378948        1.4147259340
 H          2.3216077700        0.5034240498        0.2686540591
 H         -1.5770852271        0.5205790337        1.0482564466
  10
        -15.45979326
 C         -0.6761041152       -0.5139855519        0.3721443867
 C          0.6690706103       -0.5391684460       -0.3491781429
 O          1.4969854594        0.4693597376        0.1908056991
 O         -1.4906497408        0.4810333259       -0.2115918384
 H         -0.4917398455       -0.2986520091        1.4306271294
 H         -1.1534410402       -1.4979296899        0.2754862344
 H          0.4877034705       -0.3682781581       -1.4162438768
 H          1.1328156248       -1.5243483040       -0.2087670050
 H          2.2955599781        0.5533473715       -0.3471527660
 H         -2.2876552810        0.5994330027        0.3223277697
  10
        -15.45928231
 C         -0.6792702729       -0.5310764690        0.3668914526
 C          0.6752111691       -0.5426396605       -0.3414192055
 O          1.5089472110        0.4679245310        0.1932012281
 O         -1.4839792083        0.4802547072       -0.2043737692
 H         -0.5087171012       -0.3408004517        1.4324642212
 H         -1.1559018613       -1.5119584077        0.2419390585
 H          0.5011006241       -0.3966205761       -1.4096391676
 H          1.1532302178       -1.5178124695       -0.1813442793
 H          1.9614796081        0.9389981715       -0.5162792591
 H         -2.2991488074        0.5719274755        0.3066750032
