! pbe def2-sv(p) def2/J RI DEFGRID1 loosescf d4 GCP(DFT/SV(P)) printgap
%output
    printlevel normal
end
* xyz 0 1
C 4.4776893444 -1.6286887775 -0.9037928038
C 4.6081869186 -0.205451703 -0.4003897998
O 3.5040047646 0.1849917495 0.4322514942
P 2.0235086428 0.3565355809 -0.1286471741
S 1.9319625136 1.1242307221 -1.9336895351
O 1.36098072 1.171823269 1.058373955
C 1.3497888031 2.6143438181 1.067652301
C 2.7421229827 3.1991049243 1.1688778765
S 1.1719056993 -1.5511754307 0.1712620159
C 0.1112716465 -1.6707054622 -1.3120826752
S -1.597054467 -2.1105506971 -0.9179122172
P -2.1126005891 -0.3964238324 0.19295821
S -1.4612161277 1.3168641066 -0.526878127
O -1.6137572903 -0.8589290482 1.6227212367
C -2.082714698 -0.3290903599 2.8811740562
C -1.4993605094 1.0393047578 3.1670969928
O -3.6895782036 -0.4566976968 0.3715364493
C -4.5950971662 0.1429210663 -0.5717258833
C -4.6090880278 -0.5985324977 -1.892290475
H 3.6454326258 -1.6992287652 -1.602921092
H 5.3917125717 -1.9126652116 -1.4153775333
H 4.2991373974 -2.3088343985 -0.0748301027
H 4.6681660368 0.4924812217 -1.2418176071
H 5.4780603963 -0.0848273603 0.2466460272
H 0.8426148089 2.95840959 0.1597759888
H 0.74078791 2.8665080215 1.936896885
H 2.668731371 4.2756775347 1.2870467555
H 3.2664839651 2.7729851306 2.0203525605
H 3.3041455041 2.9809451247 0.2615140281
H 0.4843886565 -2.4765092507 -1.9389876535
H 0.1430886343 -0.7140476451 -1.8412167207
H -3.1743500163 -0.3003868537 2.8621987588
H -1.7420172351 -1.0677172687 3.6088092262
H -1.8137449378 1.3684830422 4.152471866
H -0.4133202971 0.9911281196 3.1299458997
H -1.8417427277 1.7575540218 2.4232964291
H -5.563123734 0.0956191589 -0.0712213521
H -4.2999639575 1.1869320097 -0.718797513
H -4.7851786377 -1.658521283 -1.7285952295
H -5.3934613862 -0.1934846528 -2.5235144146
H -3.6517862847 -0.4771651768 -2.397370133
*
