! pbe def2-sv(p) def2/J RI DEFGRID1 loosescf d4 GCP(DFT/SV(P)) printgap
%output
    printlevel normal
end
* xyz 0 1
C 4.624118354 1.8003193974 0.2785295779
C 4.0651180618 1.2604537002 -1.021657692
O 3.299103951 0.0533118429 -0.8466677157
P 2.116367072 -0.1508329837 0.1917885418
S 2.6035720572 -0.5084295128 2.0609063024
O 1.3121418797 -1.3259021532 -0.5049794958
C 1.4206520375 -2.6978451261 -0.0906969274
C 2.7436969561 -3.2931567869 -0.5222446182
S 0.8577436845 1.5022402525 -0.1556496226
C -0.1741282668 1.2880649218 1.3204712285
S -1.1004961218 -0.2726228421 1.341854874
P -2.1733710173 -0.0972366725 -0.4814045402
S -1.3539266655 -0.4709942985 -2.2144404806
O -2.7890862343 1.3672657459 -0.3063745007
C -2.8609197721 2.3600005896 -1.3511253603
C -2.0513915716 3.5832759357 -0.9696237311
O -3.3732799621 -1.1064079609 -0.2585417491
C -4.2691098786 -1.0586539247 0.8807458943
C -3.9798328033 -2.2077009566 1.8256535574
H 5.2586173192 2.6552512359 0.0682173414
H 3.8139404393 2.1125515034 0.9363706924
H 5.206564264 1.0361821642 0.7880499601
H 4.8609983064 0.9601932905 -1.7057123813
H 3.4226128693 2.001458721 -1.5061891056
H 1.3060745294 -2.7450107507 0.9981837849
H 0.5728417945 -3.1876523941 -0.5731959731
H 2.777799655 -4.3417832203 -0.2444798336
H 2.8637179562 -3.1952299879 -1.5979942883
H 3.5584854377 -2.764176646 -0.0280869212
H -0.8649969198 2.1266183727 1.34977602
H 0.4608189493 1.2615168595 2.2067888958
H -2.4949423958 1.9181656736 -2.2837953754
H -3.9204929104 2.6021658832 -1.4536990091
H -2.3877143804 3.9736374633 -0.0130438953
H -0.9931442068 3.3353456041 -0.9067679203
H -2.1881814392 4.3439339632 -1.7312751163
H -4.162371056 -0.0933792761 1.3803740367
H -5.2684881902 -1.1433260565 0.4506930022
H -4.045873956 -3.1520948591 1.292609456
H -2.9809678542 -2.1123313849 2.246568547
H -4.707495906 -2.1977696346 2.6308580537
*
