! pbe def2-sv(p) def2/J RI DEFGRID1 loosescf d4 GCP(DFT/SV(P)) printgap
%output
    printlevel normal
end
* xyz 0 1
C 4.6309840191 0.7091320766 -2.0363163902
C 4.6275098371 0.7669195131 -0.5225520482
O 3.7087716994 -0.1808601377 0.0458754945
P 2.1327048469 -0.023915704 -0.0898532489
S 1.5250206301 1.834281626 0.0975146801
O 1.5828940915 -1.0510113272 0.983433156
C 1.3749522941 -0.6902397999 2.3628932978
C 2.6729462242 -0.3685786634 3.0699361814
S 1.7311428009 -1.1122608803 -1.8504204165
C -0.0384350689 -1.4780755443 -1.7000192933
S -1.1119523284 -0.0149524953 -1.6722968068
P -1.9705185555 -0.2106249396 0.2770224067
S -1.6569297581 -1.9196562759 1.1733577563
O -3.4967581021 0.1331823902 -0.0010516272
C -4.3355590171 -0.7743123276 -0.7445987075
C -5.7654637877 -0.2894550194 -0.619741454
O -1.5084311998 1.0187590255 1.1415785822
C -1.8064998472 2.3908245776 0.7729640689
C -3.003794591 2.8976551739 1.5472380083
H 4.8147216269 -0.3072250265 -2.3752359682
H 3.6650578055 1.0353387911 -2.4215831861
H 5.4044821287 1.3657842008 -2.4213203463
H 4.3513064788 1.7685799421 -0.1763242122
H 5.5930623784 0.4808953964 -0.1036973589
H 0.6873006773 0.1622692391 2.3975652606
H 0.8818976414 -1.567259274 2.7863873272
H 2.4758453303 -0.222248572 4.12732076
H 3.3801881085 -1.1836080766 2.9405789151
H 3.1036194733 0.5438128164 2.6592509936
H -0.2229314558 -2.063624409 -0.7948405258
H -0.2808413475 -2.0476923007 -2.5941243524
H -4.002519611 -0.7740227219 -1.7863334777
H -4.2127463142 -1.7793976153 -0.3284038526
H -6.4157170024 -0.9544971274 -1.1782674227
H -6.0689173997 -0.2848182535 0.4233562668
H -5.8531218182 0.7170731384 -1.0183749182
H -0.8981194556 2.9450520044 1.0185972402
H -1.9733516589 2.438904353 -0.3061920975
H -3.8904907109 2.3260982847 1.2864493985
H -2.8234361694 2.8014826839 2.6143314386
H -3.163066162 3.9430534355 1.3027221167
*
