! pbe def2-sv(p) def2/J RI DEFGRID1 loosescf d4 GCP(DFT/SV(P)) printgap
%output
    printlevel normal
end
* xyz 0 1
C 2.7830136525 0.8008306795 -0.0013736136
C 1.3393811473 0.394941712 0.0008174476
C 0.3274681184 1.3403919346 0.0034948491
C -1.0113753913 0.9626325889 0.0041109008
C -1.3241701271 -0.3864751815 0.001536044
C -0.3276259779 -1.3571266297 -0.0013262933
C 0.997069029 -0.9534520249 -0.0014877796
C -0.6978252254 -2.8103212037 -0.0001789015
C -2.08568581 2.0088785598 -0.00326923
H 2.8827813596 1.8824137274 0.0327749978
H 3.2970769064 0.3744631551 0.8585518537
H 3.2762997649 0.4333107583 -0.9000666018
H 0.5782331373 2.3921835994 0.0057695348
H -2.3604386095 -0.6951927147 0.0021461354
H 1.7827323069 -1.6963494223 -0.0029949477
H -1.3323081493 -3.0398874183 -0.8546764627
H 0.1886809006 -3.4372939131 -0.0443876119
H -1.2540555951 -3.0564291002 0.9032441426
H -3.0651465011 1.5611933591 0.1424917583
H -1.91132273 2.7391916046 0.7846283463
H -2.0855050404 2.538816122 -0.9551690475
*
