! pbe def2-sv(p) def2/J RI DEFGRID1 loosescf d4 GCP(DFT/SV(P)) printgap
%output
    printlevel normal
end
* xyz 0 1
C 3.4064166231 2.119959635 -0.9823346911
C 3.5380656513 1.177798937 0.1972376135
O 3.0012163569 -0.1194268832 -0.1352890768
P 1.8365429886 -0.8711208226 0.6467974765
S 1.1411435988 0.0946488694 2.2076961521
O 2.4061274131 -2.3158535904 0.9922515946
C 3.0180898694 -2.6185707282 2.2595218482
C 4.3559495455 -1.9239585204 2.4163016185
S 0.6253452686 -1.5832285731 -0.9266883934
C 0.5268455408 -0.074125785 -1.9381245977
S -0.1050476183 1.3541014945 -1.020215447
P -2.0144062753 0.5580517954 -0.5978769161
S -2.8174729209 -0.4937666593 -2.0502576484
O -2.8891152361 1.7881518559 -0.1065050038
C -3.6668736287 2.5844793626 -1.0199187361
C -2.7908320514 3.4359535902 -1.9150972863
O -1.6909864325 -0.1790320353 0.7668272971
C -2.6488858907 -0.4557203048 1.8083460895
C -3.7300755167 -1.4113375953 1.3495800524
H 3.9066313486 3.0522007513 -0.7410941779
H 3.8709783987 1.6841706287 -1.8624564235
H 2.3585426278 2.3265930547 -1.1919996086
H 3.0092546137 1.5641899912 1.0753657782
H 4.5876698104 1.0090209676 0.4479234125
H 2.3324702984 -2.3178779455 3.0587837893
H 3.1227332642 -3.7043203848 2.248391083
H 4.9938556651 -2.1440831073 1.5641755192
H 4.2054219561 -0.8468266222 2.4817951572
H 4.8365309968 -2.2683075766 3.3265818995
H -0.1542098703 -0.3110440305 -2.7561269471
H 1.5145980079 0.190800684 -2.3067724749
H -4.2907370029 1.9122611401 -1.6178137994
H -4.2929236694 3.1938673137 -0.366911828
H -3.4159799472 4.1075817169 -2.4945315864
H -2.0914457787 4.0157598266 -1.3181361646
H -2.2275584074 2.8004230564 -2.5969188751
H -2.0367248886 -0.8849993979 2.6044092427
H -3.0735842618 0.4928910714 2.14415261
H -4.3776500301 -1.6512578682 2.1869187464
H -4.3233567418 -0.9542578947 0.5583406438
H -3.2857541454 -2.3258112821 0.9624969064
*
