! pbe def2-sv(p) def2/J RI DEFGRID1 loosescf d4 GCP(DFT/SV(P)) printgap
%output
    printlevel normal
end
* xyz 0 1
C 2.346524911 1.0284485803 -2.6640409936
C 1.3850945716 -0.1403813669 -2.588584649
O 0.9197555088 -0.3702854804 -1.2446120398
P 1.902858479 -1.007100998 -0.1641162831
S 3.3904053482 -2.0833064473 -0.840195136
O 0.8114070392 -1.8427595935 0.6365861595
C 1.1981405706 -2.8510232413 1.5915523364
C 1.5198124308 -2.2504023111 2.9462982265
S 2.4597928438 0.6227297045 1.0691561713
C 0.9393423236 1.6298707956 1.0655273454
S -0.5704981582 0.7395937192 1.5023441611
P -1.6405242105 0.8433132944 -0.3401468138
S -0.9612681235 2.1676194828 -1.6164008158
O -3.1210839362 1.1617086554 0.1594960439
C -3.457519743 2.4539930266 0.6989509039
C -4.9673446626 2.5413046382 0.7925933454
O -1.8336924689 -0.5943773146 -0.9555775704
C -2.8024003742 -1.5707616609 -0.5013033365
C -2.6392236711 -1.9202188555 0.962226544
H 3.218275889 0.8332260805 -2.0394733346
H 2.6701119624 1.1557035284 -3.6919904459
H 1.8599495738 1.9424813125 -2.3312383645
H 1.8618536924 -1.0565034213 -2.949460602
H 0.4734881176 0.0538223627 -3.1559999783
H 0.3352051413 -3.5172115678 1.6456611372
H 2.055996952 -3.4006974 1.1892134847
H 0.7066998319 -1.6064987423 3.2734555835
H 1.656352247 -3.0517599637 3.6652871497
H 2.4346935389 -1.6630907269 2.894050924
H 0.7957496419 2.0855610102 0.0820573512
H 1.1169129043 2.3872127404 1.8252265319
H -2.9900859123 2.5473252291 1.6832359263
H -3.0516572798 3.2248693224 0.0354722419
H -5.4100249948 2.4331142471 -0.1936454499
H -5.3476256231 1.7553141261 1.4384376776
H -5.2417631485 3.5074009857 1.2029879872
H -3.8007318004 -1.1775063992 -0.7034019683
H -2.6030108435 -2.4303947911 -1.1434854191
H -1.6169607949 -2.2309463635 1.1571693675
H -2.8679826663 -1.0588764169 1.5871491095
H -3.31704097 -2.7304575889 1.2124874929
*
