! pbe def2-sv(p) def2/J RI DEFGRID1 loosescf d4 GCP(DFT/SV(P)) printgap
%output
    printlevel normal
end
* xyz 0 1
C 3.5673045755 2.0004621719 -1.5825292237
C 3.8435320466 1.9569478434 -0.0935125188
O 3.5393954457 0.665692235 0.4593130376
P 2.0581110732 0.2370214654 0.8437478769
S 1.0350207995 1.6571520395 1.7265171208
O 2.285926743 -1.0315935607 1.7553013916
C 3.5026029197 -1.8213433934 1.8020872616
C 3.7473927849 -2.6024251149 0.5277174227
S 1.234871691 -0.5215211068 -0.9873663192
C 0.1698581079 -1.8207896913 -0.3110892661
S -1.0089746038 -1.2357487449 0.9401055759
P -2.2462998654 -0.1311780789 -0.3580182229
S -2.4647346485 -0.8533282033 -2.1694620166
O -1.6413246822 1.3202246399 -0.2562333743
C -1.8221231215 2.3399544966 -1.2664791744
C -0.4741853458 2.7265285621 -1.8397742131
O -3.5813690612 0.0391460142 0.4910839703
C -4.5214652356 -1.0412275262 0.670189342
C -5.6450558663 -0.9500720062 -0.3440838893
H 4.1353317647 1.2297320305 -2.0957565314
H 2.5078237446 1.8348550117 -1.7710434064
H 3.8470163079 2.973984365 -1.9715373922
H 3.2544953918 2.7109603458 0.4398251494
H 4.9037735402 2.0973654395 0.1222313247
H 4.3364365336 -1.1487818267 2.0084324378
H 3.3360390419 -2.4804520865 2.6554830074
H 2.9419426329 -3.3078514989 0.3404355956
H 3.8316635526 -1.9255458722 -0.319538232
H 4.6767758151 -3.154259051 0.6306950857
H 0.7703036738 -2.5840149652 0.1761177362
H -0.3771713131 -2.2275474573 -1.1630040464
H -2.4882840886 1.9575400627 -2.0462817439
H -2.294929534 3.1788529867 -0.7533330076
H -0.0488490043 1.8905682862 -2.3915709235
H -0.597463534 3.5722077585 -2.5080598026
H 0.1987962183 2.9997565865 -1.0300764879
H -3.9940833573 -1.9961003109 0.5880519291
H -4.892377179 -0.9176731266 1.6894164822
H -6.3711629301 -1.7310749555 -0.1430978368
H -6.1298190454 0.0197846309 -0.2760158734
H -5.2547516666 -1.0783208926 -1.351279542
*
