! pbe def2-sv(p) def2/J RI DEFGRID1 loosescf d4 GCP(DFT/SV(P)) printgap
%output
    printlevel normal
end
* xyz 0 1
C 3.8565576493 1.0216957763 -1.9815576303
C 2.4860827937 0.3850724206 -2.0841373168
O 2.243665729 -0.5289903064 -1.0014636514
P 2.0312338072 -0.0292366332 0.5052870492
S 1.1613468126 1.7063576977 0.7141445613
O 3.4511188359 -0.0003277063 1.2070911498
C 4.3711631851 -1.1195573946 1.1866050927
C 4.3515571663 -1.8481204759 2.5151168201
S 1.1207725446 -1.7687275393 1.2676717283
C -0.4266890806 -1.7476438548 0.3329755103
S -1.7239196799 -0.7243127191 1.1189448752
P -2.3837990912 0.3828616891 -0.5741442815
S -1.088607299 0.5319396138 -2.0468000778
O -2.9666401876 1.7458094627 -0.0368810232
C -2.1858691374 2.9100098772 0.2807620305
C -2.0075914981 3.0324779032 1.7809039207
O -3.8001081342 -0.2227876361 -0.9412298042
C -4.0941293119 -1.6259599905 -1.0506887789
C -3.4033496152 -2.2726416041 -2.2354888802
H 3.917682833 1.6196990903 -1.0722543085
H 4.6290253365 0.2571674437 -1.9579560796
H 4.0153842486 1.6680268405 -2.8388872233
H 2.3844996244 -0.2317163596 -2.9782518981
H 1.6992280926 1.1461213935 -2.082912258
H 4.1057281726 -1.7863898362 0.3626415984
H 5.3472105402 -0.6681490097 0.999338639
H 5.1054358717 -2.6288623785 2.5022000219
H 4.5672975469 -1.1533416443 3.3220024608
H 3.3758033674 -2.2965356796 2.6894311071
H -0.7697830336 -2.7784879848 0.3103415019
H -0.2387739121 -1.3566015207 -0.6709173766
H -1.2166227148 2.857430489 -0.2261650194
H -2.7587190537 3.7488094695 -0.1194578134
H -1.5082272899 3.9699145017 2.0023182485
H -2.9752819801 3.0065637716 2.2735305285
H -1.3929168304 2.2175433911 2.1567387831
H -3.8121656929 -2.1164882038 -0.1136359089
H -5.1794102472 -1.6511706075 -1.1636507848
H -2.3220924974 -2.2317830431 -2.1150209312
H -3.7150439012 -3.3093599779 -2.3119654382
H -3.6633513365 -1.7497818344 -3.1524404666
*
