! pbe def2-sv(p) def2/J RI DEFGRID1 loosescf d4 GCP(DFT/SV(P)) printgap
%output
    printlevel normal
end
* xyz 0 1
C 4.6375665986 -3.4571050597 -1.877861923
C 3.7755015885 -3.6252417259 -0.6366000276
O 3.4234480768 -2.3459073486 -0.0754240342
C 2.3602502631 -1.7240051983 -0.5467386709
O 1.6282590276 -2.1617244653 -1.4057250642
C 2.176189686 -0.3782375233 0.1298750859
C 0.7588864278 0.1276957007 -0.0747169495
H 0.4744656941 0.0023916663 -1.1285698324
C 0.5412925489 1.5828820096 0.2819928763
O -0.5075033897 1.9701992185 0.7606216968
O 1.5564478961 2.3408166286 -0.019435125
C 1.4545787619 3.7617421887 0.2298558111
C 1.8370298303 4.0868096912 1.6640118922
S -0.4338545448 -0.8511402227 0.9132921404
P -2.210575385 0.0619692097 0.2114909652
S -2.1867208031 0.9217792029 -1.5582644174
O -3.1915112167 -1.2075606638 0.243846611
C -3.0195335698 -2.2872017694 -0.6759016458
O -2.9480548868 0.7972258704 1.4046999318
C -3.2050531768 2.2016353958 1.482154764
H 5.5197635491 -2.8677367931 -1.6440074116
H 4.944331189 -4.4340021991 -2.2366532723
H 4.0723183452 -2.956291474 -2.6605856168
H 4.3201203397 -4.1310293758 0.1606073668
H 2.8555852304 -4.1668408411 -0.8740794017
H 2.8779696154 0.3275924859 -0.3202089765
H 2.4141163854 -0.4811029138 1.1881585525
H 2.1507054168 4.2065258387 -0.4808240929
H 0.4318340476 4.0806499288 0.0128959672
H 1.7989161181 5.1615540248 1.807126704
H 1.1424573118 3.6151931062 2.3553042227
H 2.8422376067 3.7331796539 1.8745577258
H -3.8579155206 -2.9562904733 -0.5012764255
H -2.0746713194 -2.8010062634 -0.490800161
H -3.0370081308 -1.9121146156 -1.7012121406
H -4.2182317622 2.3025017988 1.865239335
H -3.1241049548 2.6593890897 0.4948557798
H -2.4844772903 2.6572028413 2.1581802343
*
