! pbe def2-sv(p) def2/J RI DEFGRID1 loosescf d4 GCP(DFT/SV(P)) printgap
%output
    printlevel normal
end
* xyz 0 1
C 4.4475930951 1.6346196992 -1.4733173751
C 4.7802533611 0.2502578006 -0.9564350369
O 3.6076973987 -0.5672367555 -0.7793860894
P 2.4916060007 -0.2450530959 0.3056225745
S 3.1268240684 0.3939147918 2.0389327291
O 1.7447391914 -1.6271792487 0.4268242944
C 1.3720176668 -2.4369936338 -0.7180183329
C 0.4597346464 -3.536331654 -0.2194153117
S 1.1501123547 1.0652117682 -0.7161281608
C 0.2886318566 1.647468362 0.7635459667
S -0.8170061928 0.412450763 1.5015760961
P -2.242694761 0.2853064531 -0.0769364758
S -1.7769796369 -0.8402182291 -1.6181141043
O -2.4728724903 1.8326928427 -0.3225364188
C -3.680427979 2.39495741 -0.8858491868
C -3.9017140358 1.9615345723 -2.3196732968
O -3.5983836891 -0.1500087158 0.6301464612
C -3.9482907583 -1.5317129414 0.8095162527
C -3.2105237262 -2.1377126801 1.9857791467
H 3.917042029 2.2007591908 -0.709371649
H 5.3678577333 2.1541562156 -1.7201351597
H 3.8209869218 1.5676649457 -2.359416907
H 5.3028324762 0.3126912822 0.0028642956
H 5.380279764 -0.3137502805 -1.672030607
H 0.8632765261 -1.8029857203 -1.4506286594
H 2.2864744693 -2.8364177767 -1.159445593
H -0.458817646 -3.10709481 0.1721915602
H 0.2140234624 -4.1936633313 -1.0468254383
H 0.9501387247 -4.10144931 0.5677070306
H -0.2819483078 2.5266588125 0.4788383588
H 1.0251694058 1.8799717902 1.5348722516
H -4.5215863725 2.1063985088 -0.2524151548
H -3.513400456 3.4711907924 -0.8155203931
H -4.7630602452 2.4839269727 -2.7239756843
H -3.0258953408 2.1900179768 -2.9225916071
H -4.0816344006 0.888730059 -2.3673216891
H -5.0263982681 -1.5186556562 0.9747074269
H -3.7194968874 -2.0712062099 -0.1164676724
H -3.5209545151 -3.1692475453 2.1166960724
H -2.1355034602 -2.1089781345 1.8070712376
H -3.4199952143 -1.5775862602 2.8930517801
*
