! pbe def2-sv(p) def2/J RI DEFGRID1 loosescf d4 GCP(DFT/SV(P)) printgap
%output
    printlevel normal
end
* xyz 0 1
C 2.3945003022 -4.4518631298 -1.1228666099
C 3.5867165457 -3.5193296536 -1.2676680583
O 3.3737476711 -2.3114781792 -0.5128903961
C 2.7237362829 -1.3202686005 -1.0846546539
O 2.3392288886 -1.3127562443 -2.2329341198
C 2.5098302906 -0.1689588211 -0.1168332697
C 1.0487793843 0.2557348337 -0.1864016639
H 0.7773113013 0.4488393553 -1.232275584
C 0.7257896614 1.4983160169 0.6149109821
O -0.2902029208 1.575250654 1.281673156
O 1.6157540645 2.4356851839 0.4896214121
C 1.352830186 3.7197852203 1.1034807026
C 0.5134046305 4.5849331811 0.1785345587
S -0.0419349352 -1.0857650515 0.4278293372
P -1.886662681 -0.0748692062 0.268860334
S -2.1748131136 1.3969625808 -1.0080851814
O -2.6218318561 -1.4211771941 -0.2070840536
C -4.0191495095 -1.436294381 -0.5147289395
O -2.5985990735 0.0863975817 1.6889759343
C -2.7894085781 1.3035242082 2.4108409237
H 2.5920050299 -5.3771205447 -1.6537166088
H 2.214229193 -4.6677882303 -0.0735973008
H 1.5041877948 -3.9858139668 -1.5396345425
H 3.747243027 -3.2539551078 -2.3163378126
H 4.4893208678 -3.9560425157 -0.8406630029
H 3.1341010297 0.6731649653 -0.4207471633
H 2.7791570328 -0.4938019775 0.8866348599
H 0.8424627597 3.5544024609 2.0552273123
H 2.3419681338 4.1470839325 1.2647998949
H 0.3312877828 5.544811773 0.6498268412
H 1.0296769358 4.7398900816 -0.7645753438
H -0.4423063819 4.1046367077 -0.025191009
H -4.1944447832 -2.3725984516 -1.0385006193
H -4.2710765612 -0.5887912999 -1.1559984239
H -4.6040976786 -1.3933685063 0.4033682375
H -2.8313294985 2.1469919124 1.7206119606
H -1.9691235597 1.441681713 3.111472989
H -3.7354257544 1.1913420361 2.9361293049
*
