! r2scan-3c def2/J RI DEFGRID2 scfconv6 printgap
%output
    printlevel normal
end
%cpcm
    smd true
    smdsolvent "water"
end
* xyz 0 1
C 5.4145862162 -1.2915432653 -0.4264129338
C 4.7236456363 -1.8535659038 -1.6583299061
O 3.3644071303 -2.2098965266 -1.3414274188
C 2.4038615223 -1.351222723 -1.6116594143
O 2.5538101541 -0.2986444877 -2.1941325955
C 1.0538220923 -1.87269365 -1.1490726356
C 0.2766423519 -0.719668344 -0.5319296555
H 0.1565806116 0.0882407911 -1.26895111
C 1.0329149375 -0.1119913697 0.6339269416
O 2.2313185148 -0.2076583387 0.7641454462
O 0.2302796989 0.5329645777 1.454553452
C 0.8111227359 1.2704836182 2.5497446578
C 1.2075487717 2.6674176887 2.1047896826
S -1.3909784522 -1.2389916671 -0.0220290696
P -2.2703541012 0.6922862783 0.1918975152
S -1.4384583872 2.1591352549 -0.8027516159
O -3.7883073877 0.39674639 -0.2284926294
C -4.1418304138 0.1091850311 -1.5850200117
O -2.468493373 0.9967011742 1.7280028371
C -3.1622641558 0.0835362939 2.6020134659
H 6.4303221419 -1.0052542059 -0.677869529
H 4.8722786609 -0.418875895 -0.0685195833
H 5.4319175923 -2.0356587121 0.36440843
H 5.1898299673 -2.7818632259 -1.9904680379
H 4.7109106008 -1.1198410407 -2.4692845058
H 1.2089667025 -2.677418203 -0.4317451105
H 0.5117954475 -2.2571624767 -2.0140939448
H 0.0236466075 1.3022694681 3.3024709817
H 1.6777141343 0.7121634357 2.9142388023
H 1.5703203504 3.2290272034 2.9589006868
H 1.9919093388 2.6150691294 1.3523659424
H 0.3491867845 3.1786380336 1.67451165
H -3.8001063241 -0.8904305329 -1.8529615541
H -3.6974795734 0.8476116633 -2.2544246732
H -5.2265665562 0.167030957 -1.6239990501
H -4.2050098361 0.0027556051 2.3021859818
H -3.0794566905 0.5200213185 3.5939229515
H -2.687283577 -0.8969689946 2.5685104805
*
