! pbe def2-sv(p) def2/J RI DEFGRID1 loosescf d4 GCP(DFT/SV(P)) printgap
%output
    printlevel normal
end
* xyz 0 1
C 5.1305178435 -1.3667423828 -0.6396923274
C 4.582819974 -0.3004827476 -1.5648805998
O 3.1659795509 -0.1006349523 -1.3799531148
P 2.5811122122 0.5308825283 -0.0445133429
S 3.6868058426 1.8911014397 0.8271984027
O 2.295541099 -0.775091359 0.8278477138
C 2.184588965 -0.7286986869 2.2584206228
C 0.9727116981 0.0563590899 2.7168553259
S 0.7067999311 1.1524674289 -0.7937619532
C 0.1608190922 -0.4206646259 -1.5290444914
S -0.6377683397 -1.5383811692 -0.3481494103
P -2.4067013989 -0.419387154 -0.1228885728
S -3.1118572155 0.4454570379 -1.7407124041
O -2.0207565877 0.5127798196 1.0947159119
C -2.7695148258 1.7059289036 1.4221933221
C -2.0813009888 2.9340106506 0.8612966541
O -3.4162967097 -1.4303860511 0.5751274667
C -4.2502776841 -2.3441335715 -0.1667178394
C -5.6946280094 -2.1426021006 0.2487526884
H 6.1675940513 -1.5631605249 -0.8930894724
H 5.0785084075 -1.0229935894 0.3924869329
H 4.5537305886 -2.2829708319 -0.7356332049
H 4.6698577658 -0.5878273537 -2.6135760826
H 5.0905197407 0.6544305718 -1.3969137642
H 2.121574882 -1.7772124522 2.5518895007
H 3.0982286253 -0.2780340582 2.6596147618
H 0.9163869295 0.0326257668 3.8003857793
H 1.0627567855 1.0931515963 2.3909260458
H 0.0598824373 -0.3633952688 2.3013162663
H 1.0157317082 -0.9435159073 -1.9458297175
H -0.5597508988 -0.1522328877 -2.3023096874
H -3.7854636316 1.6143672193 1.0288683613
H -2.7969704114 1.7244409201 2.5125645097
H -2.6190151155 3.8222881822 1.1765180303
H -1.0557119302 2.9874284043 1.2162287888
H -2.0650306122 2.8938293595 -0.2259464728
H -4.1243058158 -2.1576965617 -1.237701651
H -3.9001396461 -3.3495872057 0.073976235
H -6.0280758065 -1.1460395424 -0.0307969063
H -6.3161572668 -2.8779366638 -0.251653151
H -5.7920615974 -2.2589150462 1.3242773221
*
