! pbe def2-sv(p) def2/J RI DEFGRID1 loosescf d4 GCP(DFT/SV(P)) printgap
%output
    printlevel normal
end
* xyz 0 1
C 3.2164376011 -1.2427423062 1.8866360351
C 2.9116270286 -1.974159867 0.5915124822
O 2.6366282485 -1.0177503073 -0.4501221349
C 1.4984889116 -1.061631729 -1.104257115
O 0.6101744207 -1.8693572951 -0.9123281985
C 1.408603973 0.037737767 -2.1433528829
C 0.2327990554 0.9670894239 -1.8300222313
H 0.1458578052 1.7226286077 -2.6159201636
C 0.3884287048 1.6678558819 -0.4957801597
O -0.5324357175 1.7724046705 0.2960680386
O 1.5901345174 2.1191422553 -0.2972490527
C 1.8861679369 2.7379759905 0.9754728645
C 3.3861568535 2.9348356212 1.049826141
S -1.38107852 0.1073960715 -1.8304435048
P -1.7481024809 -0.3928704088 0.2067340409
S -0.4849471064 -0.7464444501 1.6774959453
O -2.984278771 0.5284888381 0.6018978072
C -2.9965424119 1.4943515873 1.6518358752
O -2.6768511282 -1.6736212555 -0.0654602467
C -2.1720357585 -2.9558009382 -0.4324042037
H 3.5003989757 -1.9654695296 2.6439951692
H 4.0299340956 -0.5393237384 1.7373101809
H 2.3313225384 -0.7105058011 2.2289042491
H 2.0439186369 -2.6293677395 0.7056908965
H 3.7743082491 -2.5503926295 0.249386136
H 1.2338975205 -0.4227874559 -3.1158940795
H 2.3372194495 0.6067929571 -2.1468968504
H 1.3449486379 3.6867826617 1.0277053207
H 1.5151527997 2.0810337583 1.7684616586
H 3.8900588043 1.9780837409 0.9521453938
H 3.7166885069 3.5912260505 0.2509936622
H 3.640464123 3.3764390793 2.0072549153
H -2.7958817406 2.4801229352 1.2354627292
H -2.2396613014 1.2522738166 2.4005185128
H -3.9916088695 1.450633877 2.0888952584
H -1.7836677112 -2.9342130771 -1.4504723273
H -3.0179076882 -3.6342332025 -0.3541335626
H -1.3736420564 -3.2552694501 0.2482127734
*
