! pbe def2-sv(p) def2/J RI DEFGRID1 loosescf d4 GCP(DFT/SV(P)) printgap
%output
    printlevel normal
end
* xyz 0 1
C 0.6154752376 1.6986356355 -0.0016465954
C 1.3977253169 0.3989486798 -0.245604507
H 1.6058059639 0.3048497224 -1.3186576846
C 0.5356949022 -0.7972728565 0.2048356785
H 0.3246074934 -0.7331598086 1.2781689663
C -0.8080747201 -0.7362714852 -0.5420009185
H -0.6136124463 -0.7974454731 -1.6257551544
C -1.473490998 0.6327587333 -0.2708912929
H -2.3635649245 0.7393324644 -0.9093434537
O -0.6319558157 1.6858954771 -0.6798863336
O -1.8005600972 0.7115826579 1.0765679836
O -1.604290971 -1.8065546123 -0.1157080187
O 1.1981421301 -2.0210182623 0.0396810506
O 2.6569941369 0.4210533317 0.3719656972
H 1.1579695246 2.5559066979 -0.3991344448
H 0.4537546335 1.82853902 1.0754905786
H -2.3684390703 1.4797792119 1.2424068328
H -2.4531907745 -1.8000738606 -0.5808802752
H 1.399749234 -2.1662317567 -0.8958764191
H 2.5550286893 0.3439436393 1.3315069526
*
