  26
        -42.39671670
 C         -4.7807379139       -0.8095943354        0.1367429575
 N         -3.4208959911       -0.8525363373       -0.3513018006
 C         -2.4560427479       -0.0491750213        0.1040191626
 O         -2.5894780521        0.8159905187        0.9496552932
 O         -1.2773537442       -0.3543830445       -0.5045026613
 C         -0.1497962871        0.4380885557       -0.2968966407
 C         -0.2046228838        1.8057826816       -0.3215424717
 C          0.9692130809        2.5563456891       -0.1566086025
 C          2.1735526970        1.9368696122        0.0172523305
 C          2.2610414949        0.5288992071        0.0368574727
 C          1.0813897403       -0.2448153952       -0.1200416430
 C          1.1722465082       -1.6514830586       -0.0943513371
 C          2.3802137690       -2.2676118714        0.0800467164
 C          3.5490930561       -1.5064875020        0.2330532833
 C          3.4903420004       -0.1409744190        0.2119465084
 H         -5.0493842046       -1.7629986739        0.5900766670
 H         -5.4656986422       -0.5877591810       -0.6805120217
 H         -4.8417423289       -0.0225933834        0.8856707019
 H         -3.1805156499       -1.5297800091       -1.0591973756
 H         -1.1504582388        2.3072424045       -0.4545712459
 H          0.9015259638        3.6327963039       -0.1734694885
 H          3.0763394106        2.5149800980        0.1425090483
 H          0.2683176543       -2.2283753327       -0.2140982882
 H          2.4410955744       -3.3449364378        0.1013941829
 H          4.4943781413       -2.0094062160        0.3686889803
 H          4.3860882800        0.4503106278        0.3293415791
