! pbe def2-sv(p) def2/J RI DEFGRID1 loosescf d4 GCP(DFT/SV(P)) printgap
%output
    printlevel normal
end
* xyz 0 1
C 4.0798952604 1.6143091055 1.518418682
C 2.872935942 2.0126326148 0.6968886027
O 2.5266432952 0.9892533345 -0.2623982313
P 1.899475857 -0.391672516 0.1722177964
S 0.8661317535 -0.3996339367 1.8453707162
O 3.1653989905 -1.3508593179 0.2383785202
C 3.1141801166 -2.6844715721 0.7768257373
C 4.5047132306 -3.0513434127 1.2552534098
S 1.0440171501 -0.9953623462 -1.6654242244
C 0.049236526 0.4809231285 -2.0956510383
S -0.6810608213 1.3508760898 -0.693350078
P -2.2844176317 -0.0079263515 -0.2957524644
S -1.8755708503 -1.905617629 -0.0626476379
O -3.2761834854 0.1898448508 -1.5021491125
C -3.9173562909 1.449992136 -1.8401156405
C -3.3120794837 2.0343753864 -3.1011470102
O -3.0658653231 0.6899736396 0.8960539076
C -2.631919985 0.6755556617 2.2697658798
C -1.9122491997 1.9628422872 2.6180604809
H 4.3649873221 2.4378415329 2.1653591994
H 3.834488736 0.748858939 2.1328424199
H 4.9105003299 1.3579022992 0.8664045874
H 3.067324815 2.891211177 0.0811475541
H 2.0064589444 2.1908249784 1.3413945803
H 2.3878276842 -2.7064939672 1.5974033831
H 2.7722659552 -3.3571158534 -0.0148306705
H 5.2099333921 -2.9702066584 0.43330509
H 4.8147392164 -2.3841783562 2.0546479249
H 4.4950888512 -4.0718684676 1.6236726525
H -0.7362014583 0.1228179201 -2.7600730881
H 0.698405299 1.1960956053 -2.5954043496
H -4.9660117893 1.1885609152 -1.9888856157
H -3.8262228865 2.1353204668 -0.9963982997
H -3.9027295542 2.8920984584 -3.4071582846
H -2.2888931231 2.356198525 -2.9247473342
H -3.3226906149 1.2945089891 -3.8969918699
H -3.5510717229 0.5640915011 2.8475705615
H -1.9885405014 -0.1937402769 2.4375742592
H -1.6628601134 1.9513772999 3.6739298633
H -0.9914704476 2.0460303204 2.0447781468
H -2.5452393078 2.8184049989 2.401559658
*
