! pbe def2-sv(p) def2/J RI DEFGRID1 loosescf d4 GCP(DFT/SV(P)) printgap
%output
    printlevel normal
end
* xyz 0 1
C 2.1896589371 -2.6397501317 2.3448785247
C 1.2862177307 -1.9778320705 1.3235522047
O 1.7273190516 -0.6260079336 1.105828613
P 2.3087750752 -0.0660577035 -0.2709649053
S 2.9045747931 -1.4087885053 -1.5536602504
O 3.4683056515 0.8898094106 0.201147875
C 3.2733286068 1.9563840939 1.1666772309
C 4.5652228982 2.741982564 1.2432368048
S 0.844159511 1.3263903202 -0.9716260734
C -0.0214763976 0.2004937566 -2.0900911136
S -0.8466715317 -1.1657428822 -1.2288069105
P -2.1233366895 0.0365152913 -0.0429474074
S -2.8665939963 1.6521171929 -0.8735305108
O -1.191363422 0.2455357153 1.2222380994
C -1.3269745962 1.3819178207 2.0985764251
C -2.6046306268 1.3129428521 2.908048732
O -3.1927504717 -0.9862810201 0.5328947672
C -4.4357482938 -1.2645801541 -0.1350723501
C -4.2301186222 -2.0221854245 -1.430892234
H 3.20536441 -2.6937605423 1.9592362536
H 2.1918196574 -2.0724719364 3.2711978455
H 1.8289663748 -3.6446803214 2.5386658176
H 0.2547449821 -1.9092322849 1.676907968
H 1.3099430783 -2.5221976475 0.3737856473
H 2.4428642473 2.5810547468 0.8254496603
H 3.0174445197 1.5033451553 2.1264788348
H 4.8033986969 3.1631003232 0.2707863005
H 4.4519389286 3.5443630305 1.9650015076
H 5.3787732507 2.0912224792 1.5504528591
H 0.6905112305 -0.2543833538 -2.7781969559
H -0.7606454047 0.8024487291 -2.6173822697
H -0.4393062668 1.3322549589 2.7310063802
H -1.2982991951 2.2926947008 1.491431408
H -2.6602077193 0.3701063874 3.445727362
H -2.6286569396 2.1364448488 3.6147676507
H -3.4650155007 1.390984777 2.2442062238
H -4.9974424355 -1.853147343 0.591462411
H -4.9471257216 -0.3150006459 -0.3227635029
H -3.7204463878 -1.3893558347 -2.1564014365
H -3.6270498885 -2.910231241 -1.2587870461
H -5.1946307359 -2.3129534721 -1.8346682533
*
