  22
        -28.12537659
 C         -1.3685916082       -1.9678062339       -0.1422150414
 C         -2.0680028990       -0.6312731021        0.0771908550
 O         -1.2122187431        0.4086624410        0.5375205392
 C         -0.3479811547        0.9757923819       -0.4129666946
 C          0.0038889210        2.3818680764        0.0714679162
 O          0.7768150359        0.1704536377       -0.6749004670
 C          1.6484578421       -0.0582765294        0.4336519350
 C          2.5442971556       -1.2418136742        0.1054395227
 H         -0.6096527292       -1.8740118706       -0.9151082051
 H         -0.8936666800       -2.2967674121        0.7786911459
 H         -2.1012020452       -2.7084661968       -0.4486880739
 H         -2.8210296036       -0.7197586199        0.8637836415
 H         -2.5553227839       -0.3053711549       -0.8521477152
 H         -0.8488125571        1.0264213714       -1.3947341673
 H          0.3572006322        2.3390804003        1.0973260217
 H         -0.8871394384        2.9996407207        0.0341244630
 H          0.7714641833        2.8033871381       -0.5701735803
 H          2.2566314958        0.8381440232        0.6091877412
 H          1.0459818168       -0.2596904659        1.3274685255
 H          3.0927680871       -1.0415860984       -0.8104820977
 H          3.2457018246       -1.4020662735        0.9181935135
 H          1.9481158375       -2.1387553580       -0.0364726156
