! pbe def2-sv(p) def2/J RI DEFGRID1 loosescf d4 GCP(DFT/SV(P)) printgap
%output
    printlevel normal
end
* xyz 0 1
C 3.2847325179 2.2416275831 -1.0495639377
C 3.8453553187 1.1184091439 -0.2002658029
O 3.1167085661 -0.1074460312 -0.444236375
P 2.0734429091 -0.7160098345 0.5731874683
S 1.5159266987 0.4427348455 2.0558418239
O 2.8276337617 -2.0291109106 1.0514884757
C 2.4309212315 -2.7971878391 2.2041931925
C 3.6785779424 -3.3804345868 2.8375874756
S 0.624174485 -1.516384644 -0.7621883666
C 0.3264676328 -0.029201399 -1.7610562065
S -0.411624491 1.3328952952 -0.8334841013
P -2.3748176231 0.5074556084 -0.7452952937
S -2.96992469 -0.3931552049 -2.3757977094
O -3.238609153 1.7088476552 -0.1684250792
C -3.232070843 3.0583448423 -0.6736411999
C -3.5091387873 3.1289064669 -2.1604300978
O -2.4189989489 -0.5160724878 0.4504430141
C -2.1021463098 -0.1825288393 1.824585792
C -1.7239784349 -1.4666868238 2.5317807315
H 3.8663756729 3.1409522378 -0.8751252583
H 3.3373092039 1.9836435905 -2.103860795
H 2.246746577 2.4349043133 -0.7806704628
H 3.7808996784 1.3678277449 0.8630085794
H 4.8787881668 0.8906043621 -0.464619831
H 1.9039033529 -2.1378925545 2.9027665977
H 1.752412422 -3.583531396 1.8636457493
H 4.3330474377 -2.5824952029 3.1773576936
H 3.3928116304 -3.9951063083 3.6848800521
H 4.2118721907 -3.9892731426 2.1132965014
H -0.3629557895 -0.3328421476 -2.5516565426
H 1.2688342787 0.326380097 -2.1692023983
H -4.0164453753 3.5505473799 -0.0960528251
H -2.2617194401 3.504133914 -0.4375009958
H -4.4435942534 2.625252565 -2.3964324291
H -3.5726638636 4.1682257138 -2.4660309441
H -2.7082358207 2.64273618 -2.7158256879
H -1.2747029781 0.5340217056 1.8409537531
H -2.9857760744 0.2789106488 2.2680861463
H -2.545982349 -2.1748775775 2.4888074052
H -0.854735606 -1.9125896283 2.051689038
H -1.4827242977 -1.2437396549 3.5660743364
*
