! pbe def2-sv(p) def2/J RI DEFGRID1 loosescf d4 GCP(DFT/SV(P)) printgap
%output
    printlevel normal
end
* xyz 0 1
C 0.7856596944 -2.848808268 1.4670747683
C 1.6748987307 -1.7332367911 1.9788159931
O 1.3381537587 -0.482508572 1.3350801196
P 2.1882470942 0.1241225462 0.1494248832
S 3.0992249914 -1.1352765691 -1.0507891847
O 3.1714574622 1.0799078999 0.9557823082
C 4.252521366 1.7831826 0.3103791657
C 5.2575580626 2.1730205746 1.3754298114
S 0.8257462221 1.4721550151 -0.7265833635
C 0.1916599491 0.3647926316 -2.0139870289
S -0.6339908 -1.1029567255 -1.3419983968
P -2.1689667966 -0.1008600811 -0.3025789203
S -2.8805705079 1.5398542491 -1.1137350749
O -1.5630146266 0.0065923538 1.1525851676
C -2.05294053 0.9477509562 2.1356571058
C -1.1263628937 2.1433939165 2.2313006764
O -3.2578126538 -1.2392394725 -0.0811326731
C -4.195400527 -1.614003817 -1.1107271397
C -5.3871098934 -2.2699058941 -0.4427123189
H -0.259726993 -2.5645654818 1.5619415397
H 0.9969181969 -3.0482215385 0.4183161006
H 0.9704117099 -3.7485166154 2.0451318221
H 2.7292020883 -1.9603417567 1.7977241572
H 1.514896134 -1.5493278113 3.0422826923
H 4.698539569 1.1222751902 -0.4405978754
H 3.835871211 2.6625025443 -0.1876546837
H 5.6570048851 1.284699838 1.8565695052
H 6.0688240392 2.72560378 0.9131701382
H 4.7787895217 2.7952247641 2.1259204045
H 1.0158104743 -0.0010972801 -2.6253671716
H -0.5149869899 0.9504085354 -2.600888037
H -3.0655836748 1.2591667899 1.8644995111
H -2.0782475152 0.384805263 3.069959472
H -1.1538220826 2.7164255755 1.3065406459
H -1.4428050407 2.7776466211 3.0530985921
H -0.1053933166 1.8100564334 2.402180459
H -4.4891028312 -0.7128305461 -1.6597128836
H -3.6906040208 -2.3021852714 -1.7935181779
H -6.0935489818 -2.5829657756 -1.2043733165
H -5.0623529524 -3.1361520821 0.1262565743
H -5.8726169844 -1.5682337975 0.2297389854
*
