! pbe def2-sv(p) def2/J RI DEFGRID1 loosescf d4 GCP(DFT/SV(P)) printgap
%output
    printlevel normal
end
* xyz 0 1
C 3.149336346 0.9057956314 3.1571352322
C 2.6017310859 1.7306655348 2.0121341143
O 1.7538854623 0.9537910736 1.1306681238
P 2.2498740342 -0.3122994212 0.3211950475
S 2.3791991555 -2.0328615742 1.2636778577
O 3.615647454 0.2132443867 -0.2952657891
C 4.5341041761 -0.6648947596 -0.9754912374
C 5.9309607396 -0.0969574084 -0.8221794769
S 0.8967536006 -0.3108016617 -1.3122215091
C -0.2731003164 -1.5224735102 -0.6448464606
S -1.358781922 -0.8217532843 0.6109474566
P -2.5528992569 0.3394793284 -0.7337609212
S -2.7870892377 -0.4738147542 -2.5008647548
O -1.9004229171 1.7634456108 -0.9139274912
C -1.9519197616 2.8656413333 0.024125253
C -1.3485396114 2.5230893624 1.3699996237
O -3.8476379369 0.684533119 0.1181961749
C -4.6380081496 -0.2681805174 0.8539742187
C -5.1402550802 -1.4063498939 -0.0087175716
H 2.3376072355 0.4346005869 3.7063490905
H 3.8059460998 0.1239612584 2.7778911538
H 3.7126403397 1.5481124681 3.826725438
H 3.4083059534 2.1614110171 1.4157441379
H 1.940241311 2.5207388001 2.371550981
H 4.4574919088 -1.663570571 -0.5318878475
H 4.2351939628 -0.7142498604 -2.0253504605
H 6.211358241 -0.0651754933 0.2270562706
H 6.630861393 -0.7289312423 -1.3587852135
H 5.9701076153 0.9089965783 -1.2299396736
H 0.2784357393 -2.3364448762 -0.1722709819
H -0.8722759298 -1.8728089857 -1.4863615115
H -1.3820999323 3.6458791449 -0.4832955204
H -2.9943597044 3.1724966926 0.1278407172
H -1.3051394184 3.4223916372 1.9766505347
H -1.9538673322 1.7782998032 1.8830853629
H -0.3445018622 2.125945071 1.2415110593
H -4.0314489062 -0.6495531028 1.6801742588
H -5.4628043642 0.3316401861 1.2430335038
H -4.3032613943 -2.0018022324 -0.3702441426
H -5.7980020379 -2.0397405763 0.577656648
H -5.6819966491 -1.0208650853 -0.8690753735
*
