! pbe def2-sv(p) def2/J RI DEFGRID1 loosescf d4 GCP(DFT/SV(P)) printgap
%output
    printlevel normal
end
* xyz 0 1
C 5.8430674753 -0.5851347469 -1.0508523678
C 4.5608675096 0.2219427856 -1.0539440556
O 3.5546857135 -0.5415317169 -0.355756203
P 2.2429600726 0.1524233469 0.2117684811
S 2.5369169336 1.7242327197 1.3340100412
O 1.5543572087 -1.0306184775 0.9875268689
C 1.3372712622 -2.3548691499 0.4257269742
C 1.1262471895 -3.3087317687 1.5819772473
S 1.1152684365 0.4888833822 -1.5695643415
C -0.0344155802 1.7066062142 -0.8663993055
S -0.8616997889 1.1514592204 0.6453754902
P -2.3868630873 -0.0431621814 -0.2745423307
S -1.8076675119 -1.3972740703 -1.5596311146
O -3.3982502788 0.9495345413 -0.9568617777
C -4.1380054093 1.9879016377 -0.2627969911
C -3.5301124549 3.3499586728 -0.5334087504
O -3.1989585004 -0.5326506769 1.000567721
C -2.6459235702 -1.3981403206 2.011910846
C -2.8047141731 -2.858857257 1.6376661281
H 6.1665225128 -0.7666749472 -0.0297359428
H 5.6845400205 -1.5387585261 -1.5459828387
H 6.612569069 -0.0303703042 -1.5773798615
H 4.2030037185 0.4039739677 -2.0708039514
H 4.6882128749 1.1804268458 -0.5399585561
H 0.459117676 -2.3050388513 -0.2256972323
H 2.2091744326 -2.6308618176 -0.1686838167
H 0.2874862587 -2.9812251943 2.189541356
H 0.9190409773 -4.2983880593 1.1879794349
H 2.0161900844 -3.3446084673 2.2039157863
H -0.7693364943 1.9191877692 -1.640375301
H 0.52507939 2.5987813598 -0.5880413298
H -5.1472790299 1.9172835375 -0.671115602
H -4.155656693 1.7624580217 0.8043384275
H -4.1772825344 4.1130600493 -0.1126172639
H -2.5472953513 3.4327924381 -0.0754006153
H -3.4393584266 3.5131006591 -1.6040247536
H -1.5952443579 -1.1363641236 2.1693485013
H -3.2155772498 -1.155891021 2.9114497144
H -2.4437821045 -3.4795108593 2.4516798586
H -3.8521121483 -3.0822103804 1.4545215519
H -2.2399117633 -3.0849307023 0.7361777634
*
