! pbe def2-sv(p) def2/J RI DEFGRID1 loosescf d4 GCP(DFT/SV(P)) printgap
%output
    printlevel normal
end
* xyz 0 1
C 2.7758285322 0.3521628822 -3.4834052161
C 3.0007504293 -0.2767200899 -2.1254272394
O 2.427056329 0.6092797002 -1.1298555471
P 2.1601496964 0.1693796524 0.3530960448
S 1.327234035 1.6158853406 1.3723606863
O 3.6378739961 -0.2560545761 0.7851556197
C 3.9839208967 -1.0641341031 1.9237735988
C 3.5441157172 -0.4496633247 3.2366644617
S 1.1256081078 -1.6965021712 0.3360085903
C -0.2397050822 -1.3092988801 1.4762106942
S -1.8856345593 -1.475422261 0.7412676642
P -1.9314921147 0.2673220243 -0.4801096765
S -0.6407007047 0.4225352063 -1.938763238
O -1.8180129113 1.4758330694 0.5224540125
C -2.6435635229 1.6712249975 1.696513776
C -3.8411882913 2.5415491347 1.3776248866
O -3.4530513998 0.3076100964 -0.9423758934
C -3.9170132969 -0.3617257231 -2.128542816
C -3.8097591781 -1.8683438213 -2.0155306097
H 3.1914988988 -0.2937578624 -4.2495957842
H 1.7090537853 0.4781594538 -3.6546292951
H 3.2534206921 1.3266096553 -3.527902769
H 4.0626872405 -0.3914471717 -1.8986328318
H 2.5016035126 -1.2476884742 -2.0530613059
H 3.5393044099 -2.0544953446 1.7883846929
H 5.0712768404 -1.1357280505 1.863059215
H 3.9380806904 0.5591728267 3.3325401343
H 2.4578034217 -0.3961387941 3.2848808428
H 3.9080003162 -1.0586019801 4.0578362906
H -0.0962189293 -0.28754299 1.8428765432
H -0.210785127 -2.0349512755 2.2848971389
H -2.9571269177 0.6950881511 2.0774896276
H -1.973394367 2.1546294735 2.4110531023
H -3.5119514108 3.4847897492 0.9499821702
H -4.4925535345 2.0408257135 0.6662370646
H -4.3899038419 2.735482547 2.2939427871
H -4.9538659291 -0.0358522249 -2.2218836422
H -3.333386507 0.0031117243 -2.9794828977
H -2.7619752662 -2.1651463402 -1.9925755137
H -4.2934920448 -2.216323502 -1.1061644696
H -4.2850202645 -2.3268461723 -2.8767083278
*
