! pbe def2-sv(p) def2/J RI DEFGRID1 loosescf d4 GCP(DFT/SV(P)) printgap
%output
    printlevel normal
end
* xyz 0 1
C 3.3790886646 -2.8429301022 -0.9965962115
C 3.8530997523 -1.65262359 -1.8008873277
O 3.9334778678 -0.4389263554 -1.0128550931
P 2.7837808571 0.2039821426 -0.1572137763
S 3.1243486098 2.0916881612 0.2325049981
O 2.7673359205 -0.730093919 1.132479297
C 2.0836899834 -0.400958861 2.3547464726
C 0.9218200764 -1.3494482774 2.5782512086
S 1.0005814468 -0.1899298674 -1.2762474149
C 0.1440854504 1.3682651821 -0.9609553604
S -0.7164404182 1.3950354973 0.6317287261
P -2.3133365467 0.143016496 0.0273077556
S -3.0221376061 0.4506140673 -1.7816116827
O -3.3290712015 0.2078909126 1.2443952217
C -3.8308616289 1.4095149597 1.8563491012
C -4.4184145447 2.3809518583 0.8535235638
O -1.6897921834 -1.2996103333 0.234204849
C -2.1380166833 -2.4482208552 -0.5104792216
C -3.4993048834 -2.9061859793 -0.0321823926
H 3.4303733299 -3.7329219576 -1.6162121227
H 4.0043409748 -2.9768366345 -0.1178662752
H 2.3492858836 -2.691771718 -0.6788046881
H 3.1880761793 -1.4634885949 -2.6474671274
H 4.8764838152 -1.784524468 -2.1552053267
H 2.8330950332 -0.5072457665 3.1420765987
H 1.7519955823 0.6423362731 2.3182117502
H 0.1792258279 -1.2442700974 1.7909846518
H 1.2779255958 -2.3755782248 2.5902403704
H 0.4555974673 -1.1191238047 3.5306988169
H -0.5841970939 1.4980272806 -1.7625137763
H 0.8712234732 2.181256492 -0.9399969397
H -4.5899304908 1.0457602585 2.551240395
H -3.0119182294 1.8754000936 2.4116831816
H -5.1838153809 1.8933156749 0.2542207147
H -4.8572002513 3.2223248924 1.3802077745
H -3.6403820525 2.7494293804 0.1857664032
H -2.1645594032 -2.1880740514 -1.5736164618
H -1.3673967108 -3.1990705413 -0.3331811989
H -3.4738716611 -3.1103028595 1.0347126484
H -4.2336484593 -2.1236765635 -0.2216529414
H -3.7901893869 -3.8037677621 -0.568587999
*
