! pbe def2-sv(p) def2/J RI DEFGRID1 loosescf d4 GCP(DFT/SV(P)) printgap
%output
    printlevel normal
end
* xyz 0 1
C 5.2994896358 -1.0785683029 -2.2313109923
C 4.3428476104 -0.1677790603 -1.4783097157
O 2.9879425224 -0.6456822991 -1.5788198446
C 2.5710895156 -1.5414144786 -0.7091673026
O 3.2447354472 -2.0133180887 0.1790670252
C 1.1128677864 -1.8995763492 -0.945810823
C 0.2437288244 -0.678718478 -0.6355297474
H 0.4864531435 0.144242224 -1.3119432595
C 0.4747507071 -0.2396568756 0.7997092234
O -0.2971739082 -0.4947303853 1.701562668
O 1.6165212725 0.3834377212 0.9176263758
C 2.0166360941 0.8936518523 2.2077617347
C 2.2141577012 2.3955343028 2.1063330305
S -1.5168817924 -1.1115434287 -0.8236864659
P -2.3478597406 0.5876692024 0.1385045854
S -1.2402381289 2.1994924724 0.1620225639
O -3.7191371644 0.7591957437 -0.6739403209
C -3.7261624934 1.1720958573 -2.0453061166
O -2.9302241088 0.2132539325 1.5548716607
C -3.6801861034 -0.9934590027 1.7974988555
H 4.987966064 -1.1734083516 -3.2677147095
H 6.2985690891 -0.6571854346 -2.1948809998
H 5.3154331301 -2.0648156843 -1.7731312966
H 4.3123688742 0.8292895054 -1.9176276532
H 4.6128214266 -0.1102254467 -0.4203094764
H 0.8422659545 -2.7316396738 -0.2949496159
H 0.9693669867 -2.1816602705 -1.9887192857
H 1.2425564927 0.6369319941 2.9358890654
H 2.9470083391 0.3777637436 2.4569318767
H 2.9790279602 2.6244900028 1.3706369683
H 1.284366918 2.8725009008 1.8028119341
H 2.5151624136 2.7820436979 3.074131034
H -3.3642606221 0.3616565828 -2.6775845931
H -3.0991447917 2.0558415211 -2.1729368399
H -4.7626951359 1.4057174476 -2.2739650319
H -4.4778886663 -1.0949618882 1.0638865856
H -4.084743449 -0.8765493317 2.7993326259
H -3.0079750621 -1.8500490543 1.7544980633
*
