! r2scan-3c def2/J RI DEFGRID2 scfconv6 printgap
%output
    printlevel normal
end
* xyz 0 1
C 5.4735654843 -1.1090525948 -1.281502474
C 4.1781219811 -0.4664926434 -1.7326870706
O 3.626701438 0.3738074326 -0.6869115957
P 2.5525095389 -0.1086186026 0.3635167
S 2.2337938776 1.2579620911 1.7225632456
O 3.1359302654 -1.4882073622 0.894434761
C 2.6943028094 -2.0784191457 2.1304660769
C 1.2262927553 -2.4497312465 2.0925847357
S 0.916566595 -0.7369859956 -0.8675761305
C 0.4335414892 0.9115152798 -1.4344478052
S -0.6314515762 1.7968263145 -0.2551089997
P -2.2335441329 0.4238572383 -0.3195752008
S -2.6040029815 -0.3921656133 -2.0668833595
O -3.4382258806 1.2450211753 0.3085737083
C -4.1766400312 2.2139860738 -0.4626103641
C -5.5072247214 2.4427292071 0.2256152442
O -1.8614825878 -0.5605052427 0.8593994398
C -2.3946974402 -1.9024693765 0.9224633909
C -3.8871146653 -1.8984579216 1.1746173405
H 5.2896373841 -1.7934347503 -0.4581134561
H 5.9052145522 -1.6565771627 -2.1135860377
H 6.172811425 -0.344825517 -0.9533410553
H 3.4363967227 -1.2202315708 -2.010404785
H 4.3451500434 0.2163287391 -2.567831653
H 3.3302861306 -2.9575418097 2.2428220624
H 2.8892328269 -1.3680560349 2.9395694564
H 0.9677312761 -2.9855148278 3.0004386958
H 0.6204165623 -1.5453496791 2.0305591666
H 1.0155317617 -3.0748511041 1.2277554458
H -0.1115218168 0.7704198139 -2.3675108697
H 1.3172620285 1.5303313409 -1.5776073898
H -3.5870826274 3.1337261807 -0.5086928294
H -4.3107556475 1.8231993425 -1.477235404
H -6.065236346 3.1958814674 -0.3208503791
H -6.0801526594 1.5201869806 0.2514032686
H -5.3423503711 2.7837642222 1.2435338713
H -2.1583338272 -2.4104815416 -0.0179232168
H -1.8448348604 -2.3639308755 1.7433307718
H -4.4031098396 -1.4555828193 0.3233687856
H -4.2333437977 -2.9187663105 1.3060079472
H -4.1154939425 -1.3181690298 2.0647744915
*
