! pbe def2-sv(p) def2/J RI DEFGRID1 loosescf d4 GCP(DFT/SV(P)) printgap
%output
    printlevel normal
end
* xyz 0 1
C 1.5959780565 -3.6304437733 -2.1522476217
C 2.7071658148 -3.2873600117 -1.1729382964
O 2.7588007629 -1.8669489313 -0.9378689732
C 1.9683960531 -1.3535708813 -0.0222192699
O 1.2366844071 -1.9928099244 0.7027963305
C 2.0632755416 0.1616473263 0.0093021755
C 1.1094068251 0.7470882677 -1.0488840335
H 1.6375301374 0.9374896781 -1.9840316561
C 0.4702494241 2.0211533027 -0.5246978544
O -0.7194452943 2.0886595434 -0.2832822666
O 1.335396363 2.976939509 -0.3549555551
C 0.8894207149 4.2044575241 0.2675724556
C 0.9390747365 4.0771924413 1.7810961486
S -0.2607483758 -0.374941828 -1.5043762782
P -1.376115585 -0.3436143059 0.2872573311
S -0.7858756509 0.2621024563 2.0647294581
O -2.8494456095 0.1612371036 -0.087988313
C -3.4088614356 1.4301445952 0.2473416799
O -1.6488845092 -1.920202595 0.2127882254
C -2.3711963405 -2.5990973792 1.2420408268
H 1.6114605252 -4.6959434316 -2.3555685361
H 0.6288317216 -3.3633951606 -1.7304415148
H 1.731155174 -3.0820909687 -3.0800528015
H 3.6882636059 -3.5311944721 -1.5801937538
H 2.5516209869 -3.7940015487 -0.2161149847
H 3.0833683536 0.4745217975 -0.203340564
H 1.7681753009 0.4870990828 1.0086220177
H 1.5874031496 4.9581932865 -0.095251658
H -0.1259303809 4.4209800605 -0.0731255602
H 1.9520827526 3.8615841937 2.1085928454
H 0.6075324541 5.006661458 2.2313815697
H 0.2860969866 3.2722461479 2.1156797457
H -4.4766402668 1.2623665338 0.3685824187
H -3.2140276618 2.137188434 -0.5560721078
H -2.9692709493 1.7989391655 1.1753729699
H -1.9625997203 -2.3359100397 2.219902353
H -2.2310443649 -3.6594639776 1.0490780602
H -3.4274422606 -2.3333535116 1.1964181988
*
