! pbe def2-sv(p) def2/J RI DEFGRID1 loosescf d4 GCP(DFT/SV(P)) printgap
%output
    printlevel normal
end
* xyz 0 1
C 3.8146950588 0.6004373647 -2.9546988453
C 2.5123040352 0.4638464788 -2.1935302734
O 2.7866517069 -0.248965948 -0.9728853529
P 1.9694666193 -0.0638196422 0.3749761268
S 1.5140941263 1.7729950253 0.8598270583
O 2.9382993375 -0.6840058512 1.4515048594
C 3.5860949431 -1.9771227465 1.3107856605
C 3.0016853672 -2.9691586143 2.2967219209
S 0.4368248158 -1.5372924716 0.1498778779
C -0.4562998817 -1.2522741055 1.6943112604
S -1.4280745636 0.2980025655 1.7488429906
P -2.0685633529 0.4459394174 -0.2534808368
S -0.8954906409 0.9462176767 -1.7544730665
O -3.3019158359 1.4441161731 -0.1187858359
C -3.1664220875 2.8658274343 -0.2718103621
C -2.3470349192 3.4796853183 0.8455678022
O -2.7876453499 -0.9532661889 -0.3845202058
C -3.0094546945 -1.6495306043 -1.6326148128
C -2.5975614175 -3.0978521464 -1.4611385019
H 3.6234782041 1.1164757313 -3.889647446
H 4.5303606719 1.1710152407 -2.3690579995
H 4.228596868 -0.3819984854 -3.1620451379
H 1.769897929 -0.1043730452 -2.7597496856
H 2.0846774144 1.4410232872 -1.9462025852
H 3.4764713699 -2.3225910587 0.2813618039
H 4.6383550189 -1.7814804829 1.5217891994
H 3.5955174598 -3.8773994269 2.2734277258
H 3.0262939548 -2.5538601119 3.3005106548
H 1.9750192984 -3.2124253649 2.0350615354
H 0.2454717439 -1.1895964528 2.5249537414
H -1.1364660089 -2.0929212184 1.8113153129
H -2.7027487848 3.067454402 -1.2433215442
H -4.194435975 3.2303387416 -0.2668359366
H -1.3154747207 3.1265832719 0.794381931
H -2.3482635938 4.5602369479 0.7452413985
H -2.7595136194 3.2045380244 1.8133222001
H -4.0735691455 -1.5569412114 -1.8578887778
H -2.4265383069 -1.1584994794 -2.4192965668
H -3.1623718684 -3.5514844545 -0.6520457307
H -2.7970191282 -3.633663146 -2.3833103017
H -1.5360122274 -3.1598525533 -1.2319637318
*
