  16
        -19.88063014
 C         -1.4802962446       -0.0017362939       -0.2438772632
 C         -0.7323122379       -1.2446478718        0.2359156597
 C          0.7233070520       -1.1712822253       -0.2248306365
 O          1.3673174577        0.0015957419        0.2396033040
 C          0.7203829605        1.1729218151       -0.2248374151
 C         -0.7353747751        1.2429509494        0.2359458100
 H         -2.5019276727       -0.0028704880        0.1375346655
 H         -1.5232315478       -0.0018179561       -1.3357418290
 H         -0.7551991176       -1.2869085720        1.3262847846
 H         -1.1897958128       -2.1514990788       -0.1588597855
 H          1.3091161616       -2.0003861250        0.1756851504
 H          0.7672272675       -1.1982561831       -1.3248960891
 H          1.3042276434        2.0035325547        0.1756520557
 H          0.7643724213        1.2004994172       -1.3248099230
 H         -0.7583610227        1.2850806788        1.3263281457
 H         -1.1950202431        2.1486690255       -0.1588765758
  16
        -19.87288195
 C         -1.3775312222       -0.0241975555       -0.4000406689
 C         -0.7352193670       -1.1855756165        0.3533547014
 C          0.7648387438       -1.2215241340        0.0194056744
 O          1.2563885260        0.0354637127       -0.4190585979
 C          0.7336837659        1.1087555229        0.3402169857
 C         -0.7777849238        1.2923878770        0.1033223070
 H         -2.4581058160       -0.0239332613       -0.2607853082
 H         -1.1675162649       -0.1368408235       -1.4654724318
 H         -0.8805830348       -1.0400420301        1.4251596736
 H         -1.1933677385       -2.1330238044        0.0735331318
 H          1.3452800038       -1.5526084202        0.8942458567
 H          0.9680937805       -1.9004075824       -0.8113987288
 H          0.9387146766        0.9295941553        1.4053553062
 H          1.2970797356        1.9873959836        0.0225695508
 H         -1.2526645458        1.5878398344        1.0392100441
 H         -0.9526520663        2.0784150758       -0.6307390050
  16
        -19.87255069
 C         -1.5451060244       -0.0018787372       -0.0274742205
 C         -0.6731353782       -1.2082972484        0.3500789434
 C          0.6668661757       -1.1300824272       -0.3722587232
 O          1.4329929215        0.0017263148        0.0251576963
 C          0.6505056662        1.1314739049        0.3956535842
 C         -0.6633547491        1.2068927990       -0.3734633782
 H         -2.2027323400        0.2424922205        0.8069914294
 H         -2.1718879645       -0.2479590619       -0.8849059855
 H         -0.4838796902       -1.2189622930        1.4247628751
 H         -1.1687657451       -2.1414341277        0.0862735756
 H          1.2928095476       -1.9966181480       -0.1443782165
 H          0.5034722004       -1.0960382373       -1.4592179509
 H          0.4488832744        1.0966636927        1.4761682293
 H          1.2818993061        1.9997506204        0.1898796547
 H         -1.1702172212        2.1386843910       -0.1268027768
 H         -0.4365181335        1.2185603451       -1.4408462907
