! pbe def2-sv(p) def2/J RI DEFGRID1 loosescf d4 GCP(DFT/SV(P)) printgap
%output
    printlevel normal
end
* xyz 0 1
C 2.628516589 2.3827653697 1.1221564457
C 1.2148642105 2.0086214531 1.5096042224
O 1.0669861856 0.6128784844 1.8674183384
P 1.5960173514 -0.6341768542 1.0647288422
S 0.7812283609 -2.3179402355 1.6499582855
O 3.1580533639 -0.5636884969 1.3842240804
C 4.0351901389 -1.6925175528 1.2618300726
C 4.187090475 -2.1615616239 -0.1715649451
S 1.482947405 -0.1697765771 -1.016502837
C 0.4141836861 -1.5112910874 -1.5848667201
S -1.1586403973 -0.9692850353 -2.3321872331
P -1.9362967266 0.3139194323 -0.842372455
S -3.8718504025 0.5719639718 -0.9627049703
O -1.0401434918 1.6304800554 -0.924982722
C -1.0627159928 2.4736256945 -2.0956618177
C -2.0142712207 3.6375721421 -1.9025546528
O -1.3741520601 -0.2915168247 0.5163137741
C -2.2395358495 -0.490186386 1.653030615
C -2.360276683 0.7810227861 2.4648448429
H 2.6738213682 3.453813671 0.9491837229
H 3.3207543933 2.1164472678 1.9166608929
H 2.9217063642 1.8642803246 0.2105205035
H 0.5139599334 2.2197132656 0.6985783652
H 0.8981407208 2.53222865 2.4136463466
H 4.981268946 -1.3311310768 1.6673238276
H 3.6485516328 -2.5013499616 1.8901649003
H 4.9648858023 -2.9170498116 -0.2184241143
H 3.2531742592 -2.5995006125 -0.5210380932
H 4.4533080179 -1.3291163332 -0.8177241427
H 0.2068769437 -2.1743226705 -0.7400743787
H 0.9225022496 -2.0405188781 -2.3874476944
H -0.0311744137 2.8116534408 -2.2151518955
H -1.3497971791 1.8720049065 -2.9647795361
H -1.9789808815 4.2757890236 -2.7794327198
H -3.0308079103 3.273198233 -1.7699094191
H -1.7312787095 4.2135682379 -1.0261268925
H -3.220783631 -0.816707315 1.294927551
H -1.7669765284 -1.2946174761 2.2197981829
H -3.0082442731 0.5995624232 3.3163882892
H -1.3805919226 1.0939298529 2.8149881621
H -2.7912245686 1.5684454302 1.8480447094
*
