  9
        -10.57925585
 C         -1.7099706906        0.3742557826       -0.0338193008
 C         -0.6031931267       -0.6572382516        0.0549376809
 S          1.0647335150        0.1004170833       -0.0411216750
 H         -2.6746622148       -0.1275380002       -0.0441094887
 H         -1.6769884453        1.0488635173        0.8186374004
 H         -1.6102097774        0.9600092643       -0.9447772363
 H         -0.6335282751       -1.3448563622       -0.7896756402
 H         -0.6502892229       -1.2269682149        0.9819525780
 H          0.9381106475        0.8680550662        1.0344933001
  9
        -10.57722363
 C         -1.6972180567        0.4087977892       -0.0195486319
 C         -0.6204843016       -0.6537470142        0.0726684671
 S          1.0415509095        0.1392229338       -0.0268277354
 H         -2.6782573012       -0.0558304905        0.0394073043
 H         -1.5969300405        1.1233423582        0.7947615778
 H         -1.6194259829        0.9480278891       -0.9612710357
 H         -0.6911763389       -1.3588831019       -0.7540052269
 H         -0.6690376056       -1.1823539416        1.0233856737
 H          1.7388308468       -0.9844443822        0.0781883564
