! pbe def2-sv(p) def2/J RI DEFGRID1 loosescf d4 GCP(DFT/SV(P)) printgap
%output
    printlevel normal
end
* xyz 0 1
C 0.7636599019 -1.0334592013 3.4180295103
C 2.0084398053 -0.6180105604 2.6615358238
O 1.6162852599 0.0667679208 1.4442380159
P 2.3553956795 -0.1920716994 0.0723000857
S 2.9641110365 -2.0304084314 -0.2562093549
O 3.5194185448 0.8882711675 0.1276318938
C 4.5929502983 0.917077608 -0.8348788378
C 5.8124265288 1.5149829728 -0.1622020378
S 0.9887451439 0.6019240773 -1.3225322422
C 0.0159084119 -0.9180710591 -1.5257167786
S -1.0656437347 -1.2499911048 -0.1208005588
P -2.3958232344 0.3845217105 -0.4899797255
S -2.7718620363 0.7710237275 -2.3676201011
O -1.742192882 1.6164541746 0.2450502664
C -1.4545956394 1.6283339235 1.6647242936
C -2.5101674754 2.4178895385 2.4104985221
O -3.6524226986 0.060462976 0.4269002914
C -4.7614540551 -0.7366297415 -0.0298185592
C -4.3654188981 -2.1701020513 -0.3165912817
H 0.1889129324 -0.1590372057 3.7082187238
H 0.1472383914 -1.6774525169 2.7951136619
H 1.0602973869 -1.5784311413 4.3084789889
H 2.6128940306 -1.4906486547 2.3921880787
H 2.6170800638 0.0808615403 3.2381436307
H 4.7864598153 -0.1060081616 -1.1750036918
H 4.2661705603 1.522539114 -1.6839213387
H 6.621145077 1.5765864172 -0.8829619904
H 5.5814856025 2.5101132133 0.2066094547
H 6.1227127552 0.8919882966 0.6720216097
H 0.6911233847 -1.7689429932 -1.62179843
H -0.5884818512 -0.7819732232 -2.4228837439
H -1.4043634815 0.5965153653 2.0224303653
H -0.4692667505 2.0930508392 1.7451178479
H -3.4771025871 1.9304595664 2.3184678864
H -2.2362810938 2.4783843995 3.4591844589
H -2.5824863847 3.42118372 1.9997872651
H -5.4795244678 -0.6740081916 0.7890381156
H -5.175472447 -0.2658132419 -0.9264261553
H -3.8491712391 -2.600740409 0.5377360185
H -5.2569466647 -2.7509599692 -0.5301212987
H -3.7057547643 -2.2087520659 -1.1821405184
*
