! pbe def2-sv(p) def2/J RI DEFGRID1 loosescf d4 GCP(DFT/SV(P)) printgap
%output
    printlevel normal
end
* xyz 0 1
C -1.7580644723 0.6888757118 -0.0002362335
C -0.4724585722 -0.1057075901 -2.9273e-05
O -0.4470318568 -1.3349206466 0.0001094084
N 0.6384328337 0.6445068175 0.0005985934
C 1.9754302552 0.0967019475 -0.0003202137
H -1.8069824201 1.3169733336 0.8849384152
H -1.8059718751 1.3181079992 -0.8847788392
H -2.6002381575 0.0034966903 -0.001126571
H 0.5517865188 1.6490187967 -9.53237e-05
H 2.5148234017 0.4111179508 -0.893747797
H 1.8897675297 -0.9886181978 0.0060826976
H 2.5205366933 0.4218728946 0.8856519821
*
