! pbe def2-sv(p) def2/J RI DEFGRID1 loosescf d4 GCP(DFT/SV(P)) printgap
%output
    printlevel normal
end
* xyz 0 1
C 4.6377216464 -1.5677190266 -0.4951097957
C 4.5927577598 -0.0714810856 -0.2625374842
O 3.416968664 0.3269029479 0.4626069752
P 1.9654858606 0.312352152 -0.1908227346
S 1.953244687 0.7971345904 -2.0970000825
O 1.1608918276 1.1722828893 0.869043774
C 1.5500433113 2.4715132865 1.3589274779
C 1.730122837 3.4838157818 0.2473495157
S 1.2029985612 -1.5969112741 0.2488771627
C -0.0335034594 -1.7823061957 -1.0785140353
S -1.7243987185 -1.9337707317 -0.461030524
P -2.0277066281 0.0674819442 0.1914586443
S -1.3998447107 1.4795953889 -1.0070729649
O -1.41590445 0.1749292037 1.6418348238
C -1.8769402181 -0.6181724495 2.7707645401
C -0.8711747278 -1.6969194964 3.1183715055
O -3.5887856432 0.0989467095 0.5035365218
C -4.5778477914 0.4215938602 -0.4898783257
C -4.6801535415 -0.6347867088 -1.5708222359
H 4.4973192903 -2.1004108223 0.4418460426
H 3.8495792886 -1.8594289894 -1.1873242191
H 5.5985753213 -1.834187516 -0.9233905675
H 4.6089440712 0.4659782188 -1.2163335571
H 5.4161909126 0.2643962406 0.3692679969
H 0.7240586509 2.7480264616 2.01715685
H 2.4695841622 2.3537268777 1.9373492332
H 0.8332289472 3.526229737 -0.3688669621
H 1.9193500367 4.4633824784 0.6747382134
H 2.5693599206 3.2021827651 -0.3878585524
H 0.1746427655 -2.7108678293 -1.6035321324
H 0.0465469792 -0.9232203734 -1.7507508973
H -1.9790206863 0.1037443878 3.5826731241
H -2.8534226224 -1.0426840367 2.53219659
H 0.1144901014 -1.259744467 3.2552040316
H -1.1802007662 -2.179443519 4.0401959428
H -0.8112586871 -2.4428843981 2.3296802823
H -5.5018619837 0.5008980121 0.0847480605
H -4.324717718 1.3936856733 -0.9243727758
H -5.5335864016 -0.4145593138 -2.2040748386
H -3.7794627929 -0.6322495223 -2.1824908618
H -4.8017623749 -1.6202174901 -1.1283669539
*
