! pbe def2-sv(p) def2/J RI DEFGRID1 loosescf d4 GCP(DFT/SV(P)) printgap
%output
    printlevel normal
end
* xyz 0 1
C 3.2137237801 -1.5766869746 1.7595846369
C 2.9004908052 -2.2089383049 0.4144218334
O 2.6772206117 -1.174422941 -0.5634069512
C 1.5115010734 -1.064138715 -1.1587837878
O 0.5581629884 -1.7960569724 -0.967553677
C 1.4857690224 0.1060387922 -2.1194005515
C 0.3434331078 1.0610345553 -1.7634501188
H 0.3076023645 1.8742026601 -2.4935184194
C 0.4937851054 1.6550025014 -0.3753794459
O -0.4356687473 1.6836790774 0.413800358
O 1.6919660402 2.0978504417 -0.1478109033
C 2.0115642419 2.6883573773 1.1336258904
C 2.7750470989 3.9774900369 0.8947270547
S -1.3058857622 0.2780361898 -1.8510788184
P -1.6271144746 -0.4618853531 0.1098449997
S -0.4732076736 -0.8977579858 1.6516778082
O -2.9413032111 0.3276088117 0.5967196534
C -2.9848540913 1.3269813852 1.6111814693
O -2.3510111581 -1.7624110942 -0.4834659879
C -2.9204294027 -2.7625650633 0.3614103574
H 2.338414807 -1.0501892032 2.1358488302
H 3.4789126846 -2.3559311365 2.4659629548
H 4.0423631839 -0.8818796335 1.6596878325
H 2.0080930132 -2.8380350052 0.4727707654
H 3.7474348275 -2.7890241197 0.0422688062
H 1.3113559713 -0.2791495201 -3.124490376
H 2.4395694668 0.6302147895 -2.0703458797
H 1.0846584617 2.853251631 1.6881857568
H 2.6232792491 1.9550213836 1.6649897618
H 3.6641755773 3.7777734765 0.3049392391
H 2.1538761571 4.6952658191 0.3666167299
H 3.0669972815 4.397510747 1.8513670493
H -3.9837152578 1.2747444132 2.0383605234
H -2.8008292544 2.3047903402 1.1700885216
H -2.2300971615 1.1199520936 2.3721883727
H -2.2237530171 -3.020262187 1.1625033895
H -3.0954991389 -3.6234760609 -0.2788140165
H -3.8562990942 -2.4012245659 0.7885619606
*
