! pbe def2-sv(p) def2/J RI DEFGRID1 loosescf d4 GCP(DFT/SV(P)) printgap
%output
    printlevel normal
end
* xyz 0 1
C 3.9607019751 -1.9132098433 -2.092855011
C 4.1734519421 -1.8222734104 -0.5957397665
O 2.9353367029 -1.6338832611 0.1109942322
P 2.1095797611 -0.2762643148 0.035301515
S 3.2301454366 1.3370389488 -0.0123429234
O 1.1104310432 -0.4668864269 1.2496144396
C 1.5178853509 -0.3137192228 2.6296889952
C 1.3783422763 1.1238203089 3.0909293912
S 0.7551620255 -0.5366418082 -1.5620496325
C 0.2382875234 1.1976927005 -1.6744370599
S -0.6233585952 1.7792569678 -0.1962158213
P -2.2688387681 0.4333746431 -0.3341115659
S -2.9229691468 0.0407701237 -2.1316864447
O -3.370899913 1.1402773744 0.5488672808
C -3.1423880703 1.8430143592 1.7927443188
C -2.773867663 0.9024498232 2.9208210285
O -1.8080945331 -0.8399359454 0.5106857945
C -1.770422064 -2.183052334 0.0050463462
C -3.0202963162 -2.929404854 0.4266938276
H 3.2149816 -2.6697702746 -2.3237007017
H 3.6165538712 -0.9544979338 -2.4789296528
H 4.8982422128 -2.1704459935 -2.5751467189
H 4.8414609822 -0.9898635362 -0.35179442
H 4.5711080962 -2.7519807904 -0.1867808641
H 0.8440082008 -0.9744236383 3.1785082512
H 2.5464465048 -0.6669565874 2.739663672
H 2.0747287929 1.7653735905 2.5558385493
H 0.3699655977 1.4829260928 2.9038129417
H 1.5901719447 1.1792603896 4.1539186792
H -0.4246489217 1.2650389634 -2.5367083302
H 1.1147675332 1.8347591189 -1.7915117318
H -2.3595010487 2.5890547596 1.6282680384
H -4.0939026611 2.3438717372 1.9787892906
H -2.6596008154 1.4734366667 3.8371476654
H -3.5528063507 0.1568694019 3.0566056042
H -1.8393008198 0.3947540923 2.6937981511
H -1.6854802101 -2.1578622364 -1.0862591565
H -0.8664877211 -2.6247288314 0.4297488179
H -3.8954966868 -2.4522833241 -0.0109539235
H -2.9615073079 -3.9543839063 0.0750821055
H -3.1176986284 -2.9228857479 1.5086296113
*
