! pbe def2-sv(p) def2/J RI DEFGRID1 loosescf d4 GCP(DFT/SV(P)) printgap
%output
    printlevel normal
end
* xyz 0 1
C 3.3268922024 -3.8647157705 0.1887721204
C 3.7925120756 -2.8965919388 -0.8867067297
O 2.6666578679 -2.286111305 -1.5522882231
C 2.1322600448 -1.2076451288 -1.0302945467
O 2.5380353743 -0.6474474076 -0.0301501305
C 0.9194790572 -0.7498974174 -1.8067761868
C 0.5438938844 0.691417004 -1.4582922109
H 1.0272267054 1.4121916313 -2.1176015431
C 0.8530145447 1.0488485782 -0.0185315328
O 0.1844761329 0.585731436 0.8959317521
O 1.7487705232 1.979031203 0.1073449408
C 2.095020827 2.4143617472 1.4407057332
C 2.853469144 3.7208709415 1.3236628989
S -1.2569460643 0.9508841272 -1.6167323942
P -2.0482916644 0.1864867387 0.2073022327
S -2.4308973798 1.2288100927 1.8346041281
O -3.4180061498 -0.0544911386 -0.6100539298
C -4.641977156 -0.4231369412 0.0260477515
O -1.6252500625 -1.3497850339 0.4297240125
C -0.9232882567 -1.8421048092 1.5677538202
H 2.8044452675 -3.3287199488 0.9785458006
H 2.657916367 -4.6063964354 -0.2386373429
H 4.1886674281 -4.3654120428 0.6173028072
H 4.3272139091 -3.4138300239 -1.6829759338
H 4.414345786 -2.106675644 -0.4567649304
H 0.1023319763 -1.425902978 -1.5353716184
H 1.0915862856 -0.8612016055 -2.8760718971
H 1.1723260881 2.519721934 2.0206463224
H 2.7048382676 1.6251176802 1.8900282903
H 2.2265026142 4.4779371033 0.8620637752
H 3.1432010636 4.0533379308 2.3147348665
H 3.7422325178 3.5797029562 0.7165205239
H -5.4315979855 -0.1611934901 -0.6739602016
H -4.7631953981 0.1299824029 0.9604856507
H -4.6464857616 -1.494014521 0.2271379687
H -1.1443369805 -1.2269359222 2.4415592966
H 0.1502896509 -1.8197346171 1.3821493717
H -1.2717318056 -2.8617522996 1.7151130535
*
