! pbe def2-sv(p) def2/J RI DEFGRID1 loosescf d4 GCP(DFT/SV(P)) printgap
%output
    printlevel normal
end
* xyz 0 1
C 4.5460250952 0.9515506695 -2.113062101
C 4.8420404987 -0.144315231 -1.1100024756
O 3.6593353468 -0.8802443645 -0.74929672
P 2.4739745262 -0.2250214525 0.0860282632
S 3.0697211325 0.9874401756 1.512656363
O 1.6743878214 -1.5058723688 0.5613400281
C 2.1860563702 -2.3386066707 1.6307907089
C 1.0143660838 -2.9969614215 2.3275346631
S 1.1357976858 0.5455485312 -1.3393325893
C 0.2099726442 1.610046557 -0.1928374197
S -0.8453028099 0.700738719 0.9622786635
P -2.3943049553 0.1884581393 -0.4287563773
S -1.9808201521 -1.0686353436 -1.8664401863
O -2.855715225 1.589578875 -0.9907249998
C -3.4138132231 2.6460739964 -0.1664240906
C -4.9276927056 2.5990253863 -0.1873383529
O -3.593105098 -0.2381025164 0.5240671313
C -3.7871956422 -1.5988534576 0.9478085073
C -2.6420257254 -2.0877215476 1.8089242438
H 5.4778922649 1.4004831437 -2.4413852785
H 4.0168688098 0.5453854413 -2.9717323589
H 3.9263207986 1.7195737675 -1.6515946061
H 5.2764913341 0.2766046075 -0.1975088903
H 5.5065167375 -0.9036632613 -1.5241267347
H 2.854782909 -3.0758230915 1.1807363954
H 2.7559200735 -1.7072194028 2.321664034
H 0.4362257222 -3.5756928832 1.6126894671
H 1.3888281848 -3.6554224173 3.1044683486
H 0.3736235036 -2.2415307724 2.7743136595
H -0.3940748231 2.2702117804 -0.8108486415
H 0.9161353336 2.1723695647 0.4194220297
H -3.0282891575 2.5456069314 0.8514779899
H -3.0424380103 3.5687083246 -0.6168678297
H -5.2867376547 2.6437646391 -1.2118970738
H -5.2835194769 1.6797728048 0.2692341479
H -5.3157766642 3.4483636419 0.3662855864
H -4.7276554701 -1.5709213425 1.4997698478
H -3.8931218926 -2.2254672995 0.0569586001
H -2.4811652111 -1.4113934525 2.6451782695
H -2.8654900423 -3.0812509969 2.1836870534
H -1.7322001723 -2.1309483123 1.2109691821
*
