! pbe def2-sv(p) def2/J RI DEFGRID1 loosescf d4 GCP(DFT/SV(P)) printgap
%output
    printlevel normal
end
* xyz 0 1
C 1.7839555546 -4.3353127352 -1.3063728475
C 2.9183939569 -3.6067138634 -0.603613588
O 2.4482856499 -2.3782274854 -0.0149090516
C 2.5056198397 -1.2772504864 -0.7350227089
O 2.9436574732 -1.2067539525 -1.8610969126
C 1.9506148808 -0.0861894024 0.0255044921
C 0.9313350924 0.6350950318 -0.8543889606
H 1.3973303801 0.8783525335 -1.8144482537
C 0.4127915035 1.902442968 -0.2080392676
O -0.7688485163 2.0813837407 0.0179192152
O 1.3690831777 2.7371990279 0.0756543677
C 1.0257762324 3.9874410324 0.7160893114
C 0.6051558405 5.0258516578 -0.3099924553
S -0.4944102486 -0.424121159 -1.272067503
P -1.7140792989 -0.2181984137 0.4606279397
S -0.9096588793 0.0979634879 2.2308858674
O -3.0476221301 0.5517892789 0.0864296414
C -3.4670158371 1.8061422556 0.6266699135
O -2.4169491584 -1.6599969277 0.4027780766
C -1.6749460881 -2.8494012661 0.6767131267
H 2.1634713855 -5.253819036 -1.7415342261
H 0.9949536515 -4.5750117163 -0.598536691
H 1.3743268757 -3.7115559598 -2.0983140469
H 3.7200632743 -3.3682213723 -1.3081131616
H 3.3052776421 -4.1862534881 0.2346521666
H 2.7695110045 0.6022304522 0.2440171105
H 1.5034411497 -0.4256347291 0.9607912835
H 0.2267273772 3.7985423104 1.4378940742
H 1.9407740835 4.2809703409 1.2297146606
H 0.4136822446 5.9670383735 0.1943840662
H 1.3927903916 5.1671264179 -1.0448266471
H -0.3021789078 4.7088428523 -0.8189322802
H -4.5426209801 1.7261238992 0.769165657
H -3.2259205372 2.5991227408 -0.0786228456
H -2.970471827 1.9972089915 1.579398428
H -2.4116630861 -3.6457527349 0.7434638261
H -1.1364242582 -2.7478574971 1.6215279193
H -0.9701792025 -3.0471591941 -0.1319256537
*
