! r2scan-3c def2/J RI DEFGRID2 scfconv6 printgap
%output
    printlevel normal
end
* xyz 0 1
C 2.3901628754 -0.8096564551 3.426274013
C 1.2061386181 -0.8968273512 2.4861417565
O 1.3130741457 0.0920474243 1.4479059442
P 2.1612679527 -0.1127546971 0.1261937264
S 2.8035468788 -1.944191338 -0.1710076704
O 3.2382343596 1.0297519782 0.348437616
C 4.0148457509 1.6666321118 -0.6829895061
C 4.7451209476 0.6773342713 -1.5675960232
S 0.9112199292 0.7030860867 -1.3842105736
C 0.0455196276 -0.8348245769 -1.7934921233
S -0.8689208445 -1.5333776535 -0.394554309
P -2.17017616 0.1206864873 -0.099470679
S -2.7542051878 1.0638844685 -1.7193228099
O -1.4013540238 1.016578719 0.9556886436
C -1.270081991 2.4442125588 0.8484852432
C -2.4718636097 3.1332209468 1.4606152209
O -3.2813768274 -0.4744361856 0.8618128584
C -4.0164898917 -1.6928421869 0.6438799506
C -4.6867837501 -1.7420320132 -0.7137053325
H 3.3051046117 -1.0368451989 2.8804777898
H 2.4685820758 0.191807133 3.8401587335
H 2.2676909506 -1.5279535135 4.2305546833
H 0.2641992168 -0.6641354808 2.9860514517
H 1.1440662527 -1.8905757746 2.0290945827
H 3.3439069429 2.2947536367 -1.2760595694
H 4.7126779813 2.2944674685 -0.1259097802
H 5.3837159162 1.2165722178 -2.2598693353
H 5.3527259554 0.0059696687 -0.965318325
H 4.0314983463 0.0812606673 -2.1349141677
H 0.7663191138 -1.5935728602 -2.0966474007
H -0.6453751855 -0.5905120553 -2.5998265035
H -0.3465225028 2.6741352156 1.3829854821
H -1.1611347293 2.7170727079 -0.2069706541
H -2.5989664979 2.8200922209 2.4931339417
H -2.331384218 4.2086102099 1.4205754645
H -3.3675518981 2.8687556717 0.9001975793
H -3.327851536 -2.5337814598 0.7666381861
H -4.7506983248 -1.6956481812 1.4516026841
H -5.3114311899 -0.8640008945 -0.8604464647
H -3.9368807258 -1.7677003286 -1.5032454772
H -5.3001437648 -2.6348740271 -0.7802922119
*
