  32
        -45.89118004
 C         -4.7392982154        1.3111292965        0.8955261163
 C         -3.9754266835        0.8919475176       -0.3566407487
 N         -2.6543083972        1.4758030906       -0.3948488228
 C         -1.5156461630        0.7975481764       -0.2457148271
 N         -0.3869544333        1.5146877372       -0.1903726218
 C          0.7417333556        0.8077264576       -0.0755535405
 N          0.7910130850       -0.5384134009       -0.0119383625
 C         -0.3856082885       -1.1298165908       -0.0717954572
 N         -1.5652104638       -0.5475588654       -0.1872125309
 S         -0.4177083932       -2.8727126088        0.0082175215
 C          1.3572441848       -3.2480685847        0.1534810558
 N          1.8849702887        1.4886442880       -0.0177915343
 C          3.2060494590        0.9039694294        0.1024709751
 C          3.8753040617        1.3965727770        1.3838199305
 C          4.0427893426        1.2546513296       -1.1263031536
 H         -4.8569907496        2.3912392741        0.9273916109
 H         -5.7229279454        0.8520796238        0.8933377820
 H         -4.2065043531        0.9904088642        1.7870824051
 H         -4.5208313120        1.2099227013       -1.2497677497
 H         -3.8445747859       -0.1900021664       -0.3832954630
 H         -2.5736029405        2.4812236469       -0.3786213383
 H          1.8693989877       -2.8607576339       -0.7198901411
 H          1.4283435395       -4.3281671487        0.2027014399
 H          1.7397959924       -2.7884602603        1.0576463873
 H          1.8094359190        2.4931263697       -0.0718070713
 H          3.0527014796       -0.1772617084        0.1528445589
 H          4.0177606728        2.4735928539        1.3448034471
 H          3.2616056432        1.1559015985        2.2479610716
 H          4.8438464094        0.9204997722        1.5006625095
 H          5.0146250711        0.7755584429       -1.0599582028
 H          4.1868786782        2.3302739315       -1.1901322768
 H          3.5467317911        0.9139334500       -2.0314138050
