! pbe def2-sv(p) def2/J RI DEFGRID1 loosescf d4 GCP(DFT/SV(P)) printgap
%output
    printlevel normal
end
* xyz 0 1
C 1.8869980136 -3.6755118116 -2.1186925218
C 3.116979322 -2.8924565508 -1.6882368256
O 2.7409724796 -1.5988411518 -1.1796887855
C 2.3693568542 -1.5033489921 0.0815695848
O 2.3948867984 -2.4129538412 0.879263226
C 1.9128406338 -0.0969766094 0.4275992006
C 1.0241344377 0.4798312616 -0.6731961074
H 1.6008353092 0.5984463478 -1.5942067471
C 0.4285459571 1.8119768641 -0.2679239254
O -0.7719320795 2.0044470881 -0.2279276846
O 1.3348849437 2.6959693142 0.0282782919
C 0.8852947539 3.993174549 0.4832954773
C 2.1111226213 4.8289291721 0.7889321567
S -0.3455242628 -0.6325100938 -1.1225802011
P -1.7254582193 -0.2785677513 0.4702597247
S -1.1794594039 0.4093527607 2.2233704029
O -3.065786865 0.3054001691 -0.1745750217
C -3.5031205159 1.6627541695 -0.2226602358
O -2.2148323341 -1.7764668703 0.7182119325
C -2.7818840325 -2.6044415499 -0.3096038248
H 1.3073616543 -3.096131023 -2.8322595539
H 2.1949765529 -4.6106811826 -2.5739467199
H 1.2624234176 -3.890625836 -1.2544789244
H 3.7668325475 -2.672079658 -2.5348664463
H 3.6674203584 -3.4293915495 -0.9105792581
H 2.7910547704 0.5410626666 0.5446977183
H 1.3825059669 -0.1407516837 1.3820065712
H 0.2731479116 4.438495769 -0.3061523964
H 0.2588186767 3.8420205572 1.3676865481
H 1.7969101431 5.8139046124 1.1172337247
H 2.6960807254 4.3616723578 1.5750904305
H 2.7274196076 4.9265006441 -0.0995050191
H -3.0898273398 2.1517807331 -1.1024113566
H -3.1868580665 2.194499123 0.6743251926
H -4.5886364181 1.6142778559 -0.2769906566
H -2.878282486 -3.5899551293 0.1389884144
H -2.1166942383 -2.6393001193 -1.173165187
H -3.7548635679 -2.2147557853 -0.6031377101
*
