! pbe def2-sv(p) def2/J RI DEFGRID1 loosescf d4 GCP(DFT/SV(P)) printgap
%output
    printlevel normal
end
* xyz 0 1
C 4.4007071081 0.2849745133 -2.4577904252
C 4.9000914812 -0.3663616459 -1.1847551746
O 3.8297846956 -0.9114804197 -0.3909910765
P 2.6980513076 -0.006463571 0.2630349345
S 3.2698858269 1.702398254 1.0182727261
O 2.1106296434 -0.9551028381 1.3742839633
C 1.6460694923 -2.3058399768 1.1229580627
C 1.0690370924 -2.827212851 2.4218505228
S 1.1938538784 0.1054405462 -1.2494529807
C 0.1785977273 1.3307181271 -0.3857691879
S -0.8741848401 0.6142911567 0.9039805747
P -2.508986963 0.1682562172 -0.4072143688
S -2.1289516026 -0.9392904299 -1.9707239099
O -3.0310514868 1.5990932599 -0.8271538086
C -3.5303191558 2.5842732151 0.1127829741
C -5.0389347353 2.5069780881 0.2248641743
O -3.639498838 -0.3666205516 0.5705565523
C -3.7954108894 -1.7669379545 0.8688512865
C -2.6005108414 -2.3215072604 1.6146528705
H 3.8316377254 1.1822545985 -2.2182745689
H 5.2489340825 0.5617662892 -3.0756362464
H 3.7599917858 -0.3993806403 -3.0089219754
H 5.4475456183 0.3566236826 -0.5725107938
H 5.5317302373 -1.2308456056 -1.39438538
H 0.8949131295 -2.2713764821 0.3273320871
H 2.4944905094 -2.9034154397 0.7844684237
H 0.273062122 -2.1709256927 2.762078805
H 0.6733532112 -3.8249103565 2.2628863026
H 1.8421835045 -2.8607782029 3.1837360081
H -0.4453576161 1.8107455969 -1.1374587607
H 0.839091219 2.0512975519 0.0999209182
H -3.0516423323 2.4245705761 1.0827629766
H -3.2131806875 3.5423333874 -0.3037037168
H -5.387195663 3.3109764386 0.8658279203
H -5.4903609532 2.6104891334 -0.758091679
H -5.3382994614 1.553340717 0.6504428525
H -4.7039818013 -1.8065784005 1.471112871
H -3.9452428038 -2.3043079392 -0.0723132358
H -2.8018297678 -3.3454938615 1.9118559461
H -1.726900554 -2.3075196805 0.9645213636
H -2.3950969711 -1.7207988811 2.4974574097
*
