! pbe def2-sv(p) def2/J RI DEFGRID1 loosescf d4 GCP(DFT/SV(P)) printgap
%output
    printlevel normal
end
* xyz 0 1
C 1.0986923995 -4.1069641531 -0.9614271553
C 2.3812360482 -3.5283620536 -0.3855803302
O 2.1582430116 -2.1730792899 0.0476956114
C 2.4402336443 -1.18785548 -0.7791187958
O 2.9440463398 -1.3170846737 -1.8717701539
C 2.0200195782 0.148723293 -0.1941805193
C 0.8746152912 0.7055379972 -1.0429545198
H 1.237014833 0.9197669313 -2.0525289479
C 0.2885312401 1.9592378344 -0.4263319435
O -0.879593757 2.0380446747 -0.0985452982
O 1.1683710219 2.9056777393 -0.2845838292
C 0.7390187388 4.1317423266 0.3525193327
C 1.9436588043 5.0426939557 0.4681597254
S -0.476772822 -0.489779402 -1.2781158345
P -1.4857982589 -0.37686469 0.6095514099
S -0.6046509992 0.2356723187 2.2482443496
O -2.9716195116 0.1383606915 0.3277869785
C -3.4981482014 1.4497465632 0.523739199
O -1.8030772408 -1.92491034 0.8178732133
C -2.551189196 -2.7092609268 -0.1252554844
H 0.8060838629 -3.5527317704 -1.8507338523
H 1.2567399527 -5.1474080458 -1.224170206
H 0.3021286552 -4.0367443835 -0.2251624867
H 3.1833546071 -3.5290514795 -1.1288286073
H 2.6909409302 -4.062772552 0.5130094396
H 2.8558308771 0.8477750354 -0.235433413
H 1.7032773736 0.0017612412 0.8397710401
H -0.0513773449 4.5752044087 -0.2596954838
H 0.3213669829 3.8751279591 1.3308053628
H 1.6404730584 5.975856792 0.9306756061
H 2.7095188362 4.5747789787 1.0788691517
H 2.3534375556 5.2466128908 -0.5162778657
H -4.559692368 1.3098517575 0.7167476315
H -3.3402561258 2.0474594891 -0.3716835569
H -3.0136918837 1.9295992228 1.3738027515
H -2.5515583632 -3.7185674458 0.2788476215
H -2.0652949175 -2.6841976194 -1.1011217443
H -3.5668619853 -2.3266432501 -0.2051570699
*
