  8
        -14.44777570
 C          1.4206747545        0.5151407276        0.0000096832
 O          0.5722179174       -0.6443882416       -0.0000335700
 C         -0.7234025299       -0.4808017275        0.0000437641
 O         -1.3273520042        0.5625679020       -0.0000217034
 H          0.8119832262        1.4192643309       -0.0034827198
 H          2.0426116745        0.4657880965       -0.8912516148
 H          2.0378051729        0.4696954557        0.8948473831
 H         -1.2146605996       -1.4651717031        0.0001274425
