! pbe def2-sv(p) def2/J RI DEFGRID1 loosescf d4 GCP(DFT/SV(P)) printgap
%output
    printlevel normal
end
* xyz 0 1
C 3.0294430641 -3.8677347853 1.2196006316
C 2.9666261559 -3.2331883815 -0.16042158
O 2.9220119897 -1.7955949292 -0.0636496312
C 1.7559804879 -1.2095203422 0.0905090015
O 0.6943658543 -1.8025012946 0.1258812099
C 1.897661016 0.2907901846 0.2178451932
C 0.5906490627 0.9802439691 -0.1307990094
H 0.2298964152 0.6551133966 -1.1175677995
C 0.6349335811 2.5004748798 -0.1260579487
O -0.3000287676 3.175519144 -0.4933998304
O 1.7722938872 2.9662250502 0.3342664205
C 1.9472730648 4.3972978091 0.40367495
C 2.4612849034 4.9482715057 -0.9164002614
S -0.744953693 0.5286749578 1.0421029771
P -1.7939156123 -0.8786219022 -0.1699715476
S -1.306298886 -1.0330318548 -2.0596727418
O -1.9196223609 -2.2483898058 0.5978422919
C -2.3427666007 -2.3214235059 1.9732339234
O -3.3074370927 -0.3490187989 0.0132516678
C -3.7267943618 0.876819709 -0.5858658817
H 3.1345284306 -4.9424594817 1.1145052357
H 3.8785678156 -3.4760591897 1.7726696913
H 2.1161694568 -3.6557596343 1.7707986981
H 2.0822522384 -3.5736127192 -0.7071623299
H 3.8700629321 -3.437344952 -0.7349562833
H 2.6970079235 0.6262134202 -0.4431338808
H 2.1863944791 0.5229482179 1.2456364452
H 0.9884763909 4.8521883953 0.6661575642
H 2.6721496839 4.5402042808 1.2047879994
H 1.7270863788 4.7836456694 -1.7018505189
H 2.6337858735 6.0146021721 -0.8152870489
H 3.391614591 4.4600168639 -1.1923759191
H -1.694334262 -1.7035509877 2.5946463834
H -2.2479320315 -3.3706771451 2.2406709388
H -3.3753013815 -1.9880160149 2.0617995594
H -3.5722239543 0.8378346639 -1.6654868315
H -3.1656461473 1.7156039269 -0.1697709997
H -4.7842162714 0.9715221427 -0.3541510418
*
