! pbe def2-sv(p) def2/J RI DEFGRID1 loosescf d4 GCP(DFT/SV(P)) printgap
%output
    printlevel normal
end
* xyz 0 1
C 5.4222544418 -1.2865743795 0.4461196609
C 4.8319025472 -1.1672404487 -0.9431461748
O 3.4024823803 -1.356216862 -0.9272313654
P 2.4219719436 -0.2820703874 -0.30744342
S 3.0293370168 1.5792581939 -0.4721271792
O 2.2385372906 -0.8747718362 1.158312108
C 1.2316411204 -0.4953951427 2.1113733714
C 1.4503787431 0.8976646467 2.6690106073
S 0.6519090632 -0.8105708237 -1.3575888855
C 0.030296098 0.8651440232 -1.6709201674
S -0.7926367351 1.6018232587 -0.2375771783
P -2.4858763958 0.3349649396 -0.2824810447
S -3.1924558034 -0.1597809668 -2.0365334227
O -3.5715979262 1.1019243134 0.5754500742
C -3.3062628308 1.9399986701 1.7254237645
C -2.7976745583 1.1468006879 2.9106408599
O -1.9472762017 -0.8979518372 0.5887132717
C -2.408478707 -2.2420610574 0.3753037793
C -3.7955926565 -2.4370422852 0.9524345844
H 5.1418567666 -2.2366462416 0.8927786736
H 6.5038774569 -1.216990881 0.387131196
H 5.0468750408 -0.4788356375 1.0731476554
H 5.193310436 -1.9515268075 -1.6092912779
H 5.0494812043 -0.1839368429 -1.3726345653
H 0.2485340264 -0.5796303135 1.6377860445
H 1.3248768152 -1.2525753957 2.8925847942
H 2.4643045643 0.9937322551 3.0486220925
H 1.2938615737 1.6501410432 1.8986291569
H 0.7492881794 1.0729614128 3.4788438026
H -0.6818442819 0.7859446143 -2.4921112845
H 0.8620968104 1.5241073132 -1.9207473671
H -2.5867295349 2.7091585206 1.4323331314
H -4.2749433123 2.3983587861 1.9307447642
H -3.505345233 0.3646781366 3.1723018761
H -1.8376460051 0.6940255974 2.6741338461
H -2.6760936109 1.815970389 3.7566206203
H -2.4018132726 -2.4488673575 -0.6997448089
H -1.6657161808 -2.8672610486 0.8727517465
H -4.4935785433 -1.7629600584 0.4558132845
H -4.1155840961 -3.4611146971 0.7887515737
H -3.7960191546 -2.224416489 2.0180262771
*
