! pbe def2-sv(p) def2/J RI DEFGRID1 loosescf d4 GCP(DFT/SV(P)) printgap
%output
    printlevel normal
end
* xyz 0 1
C 2.9901108897 -2.3959029188 2.3077982599
C 1.6834749404 -2.2302371812 1.5614523694
O 1.4458248532 -0.8471177204 1.2358275836
P 2.2692079146 -0.0893867846 0.1102885306
S 2.9384365602 -1.2620600866 -1.3189080777
O 3.3369949523 0.6792686939 0.998174753
C 4.045089867 1.8722698452 0.616286054
C 4.7215173528 1.7505839501 -0.7335600715
S 0.9115511498 1.4278370542 -0.4671297346
C 0.0286592867 0.4343303124 -1.6983685831
S -0.953985329 -0.8935562467 -0.9689629601
P -2.6625089519 0.2503134371 -0.3627843721
S -2.8185858877 1.99617436 -1.2352280466
O -2.6689395484 0.189739964 1.2298816909
C -1.6369717611 0.6758537639 2.1032694828
C -1.5870426145 2.1894555934 2.155691585
O -3.9293224579 -0.6201085032 -0.6976878241
C -4.3728906208 -1.7991864756 0.017526584
C -3.3802942036 -2.9387284896 -0.0702958781
H 2.9969474668 -1.7718574039 3.1972871351
H 3.118216102 -3.4359423251 2.5904587118
H 3.8168857856 -2.0969002677 1.664112273
H 0.825537536 -2.5126364425 2.1725978097
H 1.6862595066 -2.8124646606 0.63421945
H 3.3349906151 2.7040339674 0.6192675488
H 4.7746131733 2.0051226531 1.4172440223
H 5.3736305702 0.8805127057 -0.7558619042
H 3.9753202787 1.6422640025 -1.5199462476
H 5.30765616 2.6436076394 -0.9254004797
H 0.7513092226 -0.0407232069 -2.3618953736
H -0.628403116 1.118414572 -2.2365218856
H -1.9062318606 0.2572160443 3.0752278338
H -0.6740940137 0.2645329565 1.7849745832
H -1.2926692838 2.5970000365 1.1903671379
H -2.5637443578 2.5887749706 2.4166108521
H -0.8604585486 2.4959795336 2.9012979864
H -4.5599168248 -1.5186392843 1.0554835823
H -5.313509965 -2.0476948864 -0.4762764852
H -2.4540033048 -2.6765926808 0.4383711174
H -3.8059969186 -3.8181187823 0.4029539519
H -3.1526812255 -3.165493573 -1.1088135352
*
