! pbe def2-sv(p) def2/J RI DEFGRID1 loosescf d4 GCP(DFT/SV(P)) printgap
%output
    printlevel normal
end
* xyz 0 1
C 4.6875456992 -1.0559236648 -1.3754640698
C 4.4499580194 -0.9407684256 0.1160772005
O 3.5247758335 0.104876493 0.4621914981
P 2.0643294089 0.3013820601 -0.1373279468
S 1.938100277 1.0393474595 -1.9535853584
O 1.4337585198 1.2052496593 1.0061568064
C 1.4355430679 2.6435600048 0.9190527689
C 2.834019651 3.2069002316 1.0448830428
S 1.1757940042 -1.5851684944 0.2035186514
C 0.0903819403 -1.7061934961 -1.2595311772
S -1.6241947558 -2.1063861269 -0.8421382855
P -2.112141812 -0.358527288 0.2209958509
S -1.4480493972 1.35343286 -0.4849518172
O -1.6102348129 -0.7892990671 1.659041755
C -1.3674424303 0.1331427337 2.7392659752
C -2.6106228733 0.9081021742 3.1208115455
O -3.6890872582 -0.4331437548 0.391334106
C -4.602288733 0.134326993 -0.5631828817
C -4.5826030583 -0.6081130601 -1.8837081301
H 3.7717551276 -1.3585092157 -1.8811712639
H 5.0042518879 -0.0999811815 -1.7857280832
H 5.4567097046 -1.7988928829 -1.5601507662
H 5.362595287 -0.6574063669 0.6436429231
H 4.0657840004 -1.8815031464 0.5203452751
H 0.9758176214 2.9345114433 -0.031800598
H 0.791763619 2.9615479332 1.7406712416
H 3.4370251083 2.8810135502 0.1980854089
H 2.7857875419 4.2912238198 1.050211066
H 3.2980790961 2.8556585091 1.962657021
H 0.4401319444 -2.5295187002 -1.8771313967
H 0.1384610349 -0.7586515211 -1.804489753
H -1.0233015927 -0.5101564868 3.5506403874
H -0.5599970009 0.8078236264 2.4387322498
H -3.4256329305 0.2231768245 3.3403193947
H -2.4022366037 1.5167026157 3.9952926037
H -2.9086118094 1.5584985922 2.2986324781
H -5.5734316325 0.0584471011 -0.0723232587
H -4.3392631886 1.1869482952 -0.7102350141
H -4.7266107319 -1.6731071197 -1.7202214463
H -5.3749015019 -0.228850382 -2.5211526566
H -3.6261116789 -0.4570596842 -2.3826531842
*
