! pbe def2-sv(p) def2/J RI DEFGRID1 loosescf d4 GCP(DFT/SV(P)) printgap
%output
    printlevel normal
end
* xyz 0 1
C 3.8405625661 -0.4384927583 -2.9183483891
C 4.5583777446 -0.9644688287 -1.6910001872
O 3.6457426853 -1.5195356512 -0.7290509443
P 2.668319613 -0.6092706666 0.1150272636
S 3.3907537393 1.1561998252 0.594999378
O 2.4439448954 -1.6654597667 1.2722046349
C 1.3604904402 -1.6306039237 2.217415944
C 1.4869533441 -0.4888341787 3.2066835862
S 0.8366790665 -0.5789545083 -0.9926313093
C 0.2612925098 1.0799366687 -0.5425400541
S -0.9074939044 1.067547358 0.8338262917
P -2.6112713639 0.5052946529 -0.3233383579
S -2.7110062936 1.2865943208 -2.11429864
O -3.816956512 0.7345116458 0.6862995166
C -4.0625141123 1.9417047375 1.4328786912
C -4.1424909985 3.1699209596 0.5511366742
O -2.6010804577 -1.0653719744 -0.4431600594
C -2.5728850565 -1.9552875952 0.7015818023
C -1.8313210488 -3.2137060639 0.2986487008
H 4.5713742306 -0.1506435191 -3.6672989312
H 3.184996498 -1.2025289713 -3.3289514077
H 3.2433842521 0.4344223267 -2.6570974214
H 5.133306192 -0.166142874 -1.2099965314
H 5.21794752 -1.7974965162 -1.9377135206
H 0.4155804617 -1.563991833 1.6698468588
H 1.4262096198 -2.5987192642 2.7169576453
H 2.4648682147 -0.5096547112 3.6806290101
H 1.3640589241 0.4692296291 2.7038757983
H 0.7172371146 -0.584990176 3.965496845
H -0.2369561587 1.5021186261 -1.4168043236
H 1.1198934597 1.6834965318 -0.2383043049
H -5.0135316628 1.7449539347 1.9307537865
H -3.2678299054 2.0500014699 2.1761039438
H -3.1796315003 3.3575726676 0.0778548338
H -4.8852833445 3.0286798802 -0.2304696137
H -4.4136387592 4.030565426 1.1539989604
H -2.0817765199 -1.4434916673 1.5352182922
H -3.6081774309 -2.1689212302 0.972791986
H -1.7962124839 -3.8948350538 1.1427122538
H -2.3410143882 -3.6934076651 -0.5317537566
H -0.8182677258 -2.9737679818 -0.0162538067
*
