! pbe def2-sv(p) def2/J RI DEFGRID1 loosescf d4 GCP(DFT/SV(P)) printgap
%output
    printlevel normal
end
* xyz 0 1
C 4.197061048 -2.4622714277 0.905388337
C 2.7221073485 -2.2658501015 0.6165436785
O 2.5941326301 -1.2198497578 -0.3668315203
C 1.4858450717 -1.137515872 -1.0662808382
O 0.5307296877 -1.8800063789 -0.933052856
C 1.5276241242 0.0023303348 -2.0619465453
C 0.4012669114 1.0006448227 -1.7787178598
H 0.3952245125 1.7715046414 -2.5542321616
C 0.5426621045 1.6705709738 -0.4255299699
O -0.3944186184 1.754446392 0.3491690058
O 1.7460624164 2.1059656441 -0.1991730204
C 2.0232124076 2.745500204 1.0679575726
C 1.6264605317 4.21146134 1.0342925488
S -1.2639854432 0.2507248209 -1.8469234747
P -1.6121828857 -0.3783077133 0.146266412
S -0.4464395479 -0.7686631562 1.6929505228
O -2.9074347587 0.4547211295 0.6028706187
C -2.9312529155 1.5070819314 1.5638376129
O -2.3632647735 -1.6916573155 -0.3804724361
C -2.9414505413 -2.64478223 0.5116564081
H 4.3111597725 -3.2348306733 1.6582333333
H 4.7189597635 -2.7614036872 0.0011587247
H 4.6282767418 -1.5367272882 1.2734669679
H 2.1673251586 -1.9584432125 1.5090076491
H 2.2535111476 -3.171476917 0.2186434749
H 1.3766594984 -0.4112271269 -3.0594234429
H 2.4927818626 0.5031323363 -1.9936046749
H 1.4853119329 2.2073061209 1.8535671741
H 3.0988802946 2.624603551 1.19237119
H 2.1321080248 4.7176224784 0.2169061959
H 0.5512296581 4.3086510558 0.9037521242
H 1.9082616302 4.6767524799 1.9728680286
H -3.9274515004 1.4888876688 1.9999030886
H -2.7402642599 2.4576389352 1.0698345143
H -2.1732624122 1.3318774964 2.3292079112
H -3.875047267 -2.2555084498 0.9185304049
H -2.2474785187 -2.8682009741 1.3253301762
H -3.1217310847 -3.5349887503 -0.0856562216
*
