! pbe def2-sv(p) def2/J RI DEFGRID1 loosescf d4 GCP(DFT/SV(P)) printgap
%output
    printlevel normal
end
* xyz 0 1
C 3.1636526939 -3.3380543101 -0.0344818729
C 3.2714077881 -1.9112860694 0.459952776
O 2.3349852171 -1.1157283089 -0.3084079141
P 2.3580689606 0.4595513212 -0.2155980335
S 4.0943651383 1.3294924311 -0.4977652536
O 1.7759117556 0.7144074934 1.2565793942
C 1.9566990777 1.9822166171 1.9046310636
C 1.0941192736 3.0578504287 1.2745539663
S 0.8128346045 0.9345915335 -1.5793737648
C 0.0405837432 -0.686036046 -1.9014766879
S -0.6842102611 -1.4838850249 -0.4573799521
P -2.1997637236 -0.0320119383 -0.0480893378
S -2.7560575014 1.1192944386 -1.526316688
O -1.6294412713 0.776166057 1.1850778253
C -1.3432484741 0.1260547057 2.4492030051
C -2.442255398 0.410968525 3.4515566096
O -3.3611527375 -0.883331407 0.6309143383
C -4.4107757723 -1.5004070801 -0.1347381291
C -3.8966648162 -2.5991090855 -1.0421885703
H 3.4511331242 -3.3962280411 -1.0803219314
H 3.8236010313 -3.9680525423 0.5527491023
H 2.1400381791 -3.6870980087 0.0706819723
H 4.2754574937 -1.4998655131 0.3132343857
H 3.0003208329 -1.8299906196 1.5148692407
H 1.6877188902 1.8005779026 2.9462385781
H 3.0154638538 2.2555776222 1.8391046432
H 1.1853825861 3.9782416767 1.8419765317
H 1.4236524776 3.2395362656 0.2504087901
H 0.0508408593 2.7498609417 1.2487474247
H 0.7765093107 -1.3730379065 -2.3079081986
H -0.7417105134 -0.4608040823 -2.6265803558
H -1.2283812888 -0.9479510855 2.278356779
H -0.389474261 0.5448075043 2.7727021564
H -2.1722786178 -0.0256218605 4.4080386796
H -2.5700654193 1.4835697508 3.5690843147
H -3.3810161251 -0.0186105812 3.1125770816
H -5.0903760464 -1.8915522151 0.6237543971
H -4.912158929 -0.7227708899 -0.7188175415
H -4.739742047 -3.1154072088 -1.4899762653
H -3.2859141401 -2.1712336265 -1.8355765353
H -3.2963889292 -3.3083911706 -0.4781267551
*
