! pbe def2-sv(p) def2/J RI DEFGRID1 loosescf d4 GCP(DFT/SV(P)) printgap
%output
    printlevel normal
end
* xyz 0 1
C 4.516509131 -1.3479302803 -1.2152797683
C 4.6745075907 -0.0022703923 -0.537065291
O 3.6346222582 0.2421244387 0.422521532
P 2.1131589185 0.4653833607 -0.000687118
S 1.9344167497 1.4641363412 -1.6864971503
O 1.5319455998 1.0381747018 1.3546081675
C 2.0449520906 2.1996905332 2.0406071236
C 1.6933973391 3.484893288 1.3187832977
S 1.2207285106 -1.4473505092 0.0650581969
C 0.2876334511 -1.4298199905 -1.5073542454
S -1.4015045241 -2.0583288569 -1.3246372008
P -2.2782157528 -0.4977733232 -0.1973400653
S -1.3268104804 1.2212280047 -0.1001804541
O -2.7006589919 -1.1777979565 1.1798105058
C -1.8027160881 -1.7815055208 2.1263090725
C -1.1195406627 -0.749244051 3.0019643985
O -3.6787054942 -0.4248563289 -0.9266712291
C -4.5172716452 0.7458090213 -0.8714240932
C -5.1182654493 0.9320294297 0.5059039427
H 4.4112011077 -2.1355634165 -0.4735562622
H 3.6309870479 -1.3380490457 -1.8498060448
H 5.3875824806 -1.5444429162 -1.8319031276
H 4.6582083744 0.803971812 -1.277544356
H 5.5918970292 0.0488145549 0.0508258693
H 1.5604799481 2.1504777 3.017512993
H 3.1260212444 2.0898799321 2.1547763388
H 2.2203365948 3.5460289442 0.3681894907
H 0.6242158256 3.5154063698 1.1177211598
H 1.9704397355 4.334658603 1.9343161924
H 0.7696603688 -2.1064893706 -2.2082915412
H 0.2775958799 -0.4054658635 -1.8898917472
H -2.4489959574 -2.4344888777 2.7159476947
H -1.0642723455 -2.3854443466 1.5883380403
H -1.8594185326 -0.1304582832 3.5026690434
H -0.5122233828 -1.2580599172 3.7435657362
H -0.4757336818 -0.1073929743 2.4036715396
H -3.9185075461 1.618134601 -1.153918055
H -5.2799132083 0.5584668279 -1.6282633403
H -4.3248385614 1.1287385306 1.2260327083
H -5.8031214706 1.7740739923 0.4919051902
H -5.649894635 0.0335626619 0.807234887
*
