! pbe def2-sv(p) def2/J RI DEFGRID1 loosescf d4 GCP(DFT/SV(P)) printgap
%output
    printlevel normal
end
* xyz 0 1
C 4.604571172 -2.2255107213 0.126088817
C 4.5255751341 -0.7163780962 0.2396733293
O 3.8008070913 -0.1730844342 -0.8964140396
P 2.3812885661 0.4970306378 -0.7774323833
S 1.7112545328 1.0277746224 -2.5339561619
O 2.6884003826 1.6688927758 0.2551723287
C 1.7599000139 2.7137458099 0.597705949
C 1.1100220616 2.4408593217 1.9398837613
S 1.2000966643 -0.8975056169 0.3195866154
C 0.131033089 -1.4884103335 -1.0348931603
S -1.4932138424 -1.9704465783 -0.4319449045
P -2.0930724069 -0.0660117754 0.3317666696
S -1.4988614464 1.5114588569 -0.6652295465
O -1.5556871949 0.0193797039 1.8098561488
C -1.8343610946 -0.9767256755 2.8259873102
C -2.9366381484 -0.496473559 3.7473000055
O -3.6521367437 -0.269406243 0.5585769731
C -4.5790343997 -0.7789216234 -0.4177498915
C -4.5280303846 -0.0212427621 -1.7277340515
H 5.0228086875 -2.5025361666 -0.8375037168
H 5.2419652784 -2.6072055366 0.9172383971
H 3.6156661818 -2.6666322867 0.2226202498
H 5.5146582966 -0.2593037027 0.187366226
H 4.0283576269 -0.410585277 1.1626974391
H 2.3652702696 3.6217241976 0.6292875752
H 1.0097391739 2.8082303612 -0.1942369103
H 1.8711063134 2.264636976 2.6946542361
H 0.5127758346 3.3023906591 2.2208655946
H 0.456649462 1.5730387757 1.8801883851
H 0.5671242106 -2.3769975308 -1.4849112113
H 0.0353806046 -0.680842011 -1.7670212086
H -2.1038562282 -1.9175776584 2.338440662
H -0.8894425794 -1.097896478 3.3588315927
H -2.6589096225 0.4524704618 4.197314946
H -3.8600101715 -0.3615205225 3.1903956965
H -3.0923055113 -1.2331543586 4.5290881584
H -4.3595442926 -1.838488799 -0.5752109539
H -5.5505196671 -0.6679504125 0.0671939335
H -4.6809529905 1.0422221317 -1.5582874766
H -3.5572611972 -0.1548532465 -2.2039968327
H -5.3005105976 -0.3943217088 -2.3924039632
*
