! pbe def2-sv(p) def2/J RI DEFGRID1 loosescf d4 GCP(DFT/SV(P)) printgap
%output
    printlevel normal
end
* xyz 0 1
C 4.2575092441 -0.7046083947 -1.9561569688
C 4.3993627608 -0.410636942 -0.4766088012
O 3.2506366572 -0.8304422699 0.276730975
P 1.8334782231 -0.1035754439 0.1656047807
S 2.0017752455 1.8418933283 -0.0770604498
O 1.1220936587 -0.6896069671 1.4537255755
C 1.7329136852 -0.7724067615 2.7570963629
C 1.9944222748 0.5940000763 3.3572896562
S 0.8386543451 -1.1487538461 -1.3736918977
C -0.0483744801 0.2130801609 -2.1782701173
S -1.8619887709 0.1529651736 -2.0177469438
P -2.0940641405 0.0867547951 0.088841692
S -3.9002589819 0.4331463959 0.7561968401
O -0.9402214467 1.0337435813 0.6431360805
C -1.2386071981 2.3913103128 1.0237298362
C -1.5062735609 3.2775003719 -0.175927093
O -1.4642512746 -1.2911698717 0.5651375398
C -2.2442820708 -2.4981778328 0.6288749639
C -2.5738318782 -3.0407338831 -0.7481149325
H 3.9837847798 -1.7451264473 -2.1105411234
H 3.4873917019 -0.0696744256 -2.3910478284
H 5.2013014694 -0.501555463 -2.4519517815
H 4.5487904444 0.6614416544 -0.3115376298
H 5.2226037346 -0.9720540869 -0.0325081193
H 1.0016363734 -1.3303840252 3.3447689285
H 2.6579238925 -1.3475183645 2.671410114
H 1.0707893866 1.1669196664 3.4018809959
H 2.3926677314 0.4779020386 4.3604824148
H 2.714380153 1.1418102895 2.7504589583
H 0.1275874533 0.1415520489 -3.2486837242
H 0.3335425733 1.1558516301 -1.7780529918
H -2.1024841236 2.3779908606 1.6952308673
H -0.3484803432 2.718385669 1.563943856
H -0.6386524814 3.3008805231 -0.8313492643
H -2.3691114876 2.9068342387 -0.7289454948
H -1.714283913 4.2853474757 0.1686978916
H -1.6112219588 -3.1873276859 1.1899522821
H -3.159335794 -2.2892727327 1.19329895
H -1.6657128843 -3.1533316939 -1.3362631634
H -3.057422361 -4.0067361138 -0.6436307868
H -3.2497107854 -2.361676015 -1.266934717
*
