! pbe def2-sv(p) def2/J RI DEFGRID1 loosescf d4 GCP(DFT/SV(P)) printgap
%output
    printlevel normal
end
* xyz 0 1
C 2.3416776379 0.0022775197 0.2483087724
N 0.8964686437 0.0018226106 0.2794665774
C 0.3402198288 1.1879176091 -0.3516181058
C -1.1965359194 1.1927403432 -0.1611028699
N -1.6722462289 -0.0013301975 0.5126575393
C -1.197162679 -1.1834584553 -0.1816011744
C 0.344384389 -1.1993074628 -0.3267546486
H 2.7073905098 0.8919980549 0.7579856697
H 2.7433536687 -0.0061075194 -0.7780267676
H 2.7078295936 -0.8790696121 0.7721140687
H 0.7873423464 2.0613353713 0.1272040028
H 0.5975379367 1.2217357608 -1.4268679115
H -1.5082126626 2.0577346375 0.4246258995
H -1.6955819662 1.2409432299 -1.1332704852
H -1.2895256525 -0.0103264766 1.4540000648
H -1.5394437315 -2.0602778575 0.3685870513
H -1.6689305246 -1.1941214842 -1.1683141028
H 0.7693440757 -2.0592463472 0.1952814846
H 0.6314069736 -1.2734613309 -1.3924340678
*
