! pbe def2-sv(p) def2/J RI DEFGRID1 loosescf d4 GCP(DFT/SV(P)) printgap
%output
    printlevel normal
end
* xyz 0 1
C 5.5949950612 -0.1340775123 -0.0569614863
C 4.4114857707 -1.0745548262 -0.1535241224
O 3.4954920522 -0.6459787777 -1.1926923931
P 2.2120871503 0.22416243 -0.9142987145
S 1.2869370226 0.6033224419 -2.59583661
O 2.8035411437 1.4611167343 -0.1170537022
C 1.9859106484 2.4707569996 0.5103880801
C 2.0486236869 2.3116203244 2.0171633134
S 1.1014701407 -0.8574987552 0.5514296188
C -0.0453559382 -1.6911280886 -0.5928768564
S -1.5995198869 -2.1407894885 0.2063417742
P -2.4753812298 -0.2143404447 0.5035334484
S -1.5395922933 1.3208063137 -0.2964845955
O -2.7627386852 -0.1764849857 2.0571072404
C -1.7091631425 -0.1430215967 3.0421434417
C -1.3692612396 1.2864328879 3.4171990518
O -3.9881663805 -0.3727063465 0.0744243952
C -4.440501048 -0.0664414584 -1.25458652
C -3.884289322 -1.0308788313 -2.2839207813
H 6.0979047602 -0.0698796036 -1.0179818867
H 5.2647714507 0.8604891819 0.2300055198
H 6.2890782145 -0.5121915173 0.687095308
H 3.8691873791 -1.1313520098 0.7947480021
H 4.7227526013 -2.0740066544 -0.4623504203
H 2.4083821867 3.4253073946 0.1910358435
H 0.95962568 2.3953714139 0.1387910192
H 1.6469782636 1.3441630799 2.310003861
H 3.078109271 2.3842551152 2.3557114864
H 1.4618380814 3.0977338986 2.4811136768
H 0.3968652915 -2.6249417054 -0.9313418132
H -0.2259253976 -1.0123537395 -1.4313068126
H -2.115323726 -0.692817875 3.893132714
H -0.8283103877 -0.6689476472 2.6569152981
H -0.5976811482 1.2843288218 4.1801082531
H -1.0096725856 1.8263776236 2.5443105272
H -2.2529065347 1.7912363329 3.797133679
H -5.5266865458 -0.1372520665 -1.1835651879
H -4.1514375847 0.9618416736 -1.4963202683
H -4.0671936971 -2.0577676142 -1.9771762972
H -4.3605028832 -0.8495655177 -3.2422429537
H -2.8103848323 -0.8800103511 -2.3964270752
*
