! pbe def2-sv(p) def2/J RI DEFGRID1 loosescf d4 GCP(DFT/SV(P)) printgap
%output
    printlevel normal
end
* xyz 0 1
C 4.1573967357 0.4904669957 -2.3000527407
C 4.5011934794 -0.2572160125 -1.0291861884
O 3.689808323 0.1431508925 0.0912340595
P 2.1018896056 0.1608700297 0.1152597252
S 1.1778532552 1.6597497675 -0.7418705502
O 1.7986451386 0.1771688414 1.6623397497
C 2.3468822864 -0.7861354757 2.5962431843
C 3.5217319317 -0.1889615063 3.3429584903
S 1.6058851068 -1.7896757038 -0.589753584
C -0.137563606 -1.4992684677 -0.9184456052
S -1.0603744556 -1.0973896686 0.6113564035
P -2.5213078803 0.2356180613 -0.1708173845
S -2.2602474264 0.8272310166 -2.0252913859
O -2.7001096696 1.3568935639 0.9301683808
C -1.8354236223 2.4935498646 1.1010876529
C -0.9411411163 2.3091176979 2.3112136085
O -3.9090697767 -0.4637561305 0.1338189945
C -4.5908442082 -1.2880518185 -0.8264206288
C -3.8331864575 -2.5664678672 -1.1258266324
H 3.1441334659 0.247690839 -2.6180662096
H 4.2159374373 1.5643591178 -2.1375881984
H 4.8506825411 0.2072984405 -3.0854702618
H 5.5185527986 -0.0362876547 -0.7015420569
H 4.3795922131 -1.3347273195 -1.169363226
H 1.5194353045 -1.0194155398 3.26909199
H 2.638607508 -1.686733497 2.0490092558
H 4.3218384575 0.0569388039 2.6498845206
H 3.2147095435 0.7173502309 3.8573601283
H 3.8835968162 -0.9094216401 4.0696907559
H -0.5173532452 -2.4277172477 -1.3381519384
H -0.2549147063 -0.6658143266 -1.6173447984
H -1.2454396622 2.6500275445 0.1915958583
H -2.5120138791 3.3397611761 1.2381370775
H -0.4009075795 3.2325755933 2.4937656747
H -1.5421569689 2.0591081538 3.1808241934
H -0.2197691625 1.5139764309 2.1356798329
H -5.5536824184 -1.4904053284 -0.355294708
H -4.7388807321 -0.7064162178 -1.74174204
H -2.9236200027 -2.3312377622 -1.6774725931
H -3.5717395084 -3.0760027159 -0.2016158836
H -4.4528971609 -3.217517423 -1.7341242513
*
