! r2scan-3c def2/J RI DEFGRID2 scfconv6 printgap
%output
    printlevel normal
end
%cpcm
    smd true
    smdsolvent "water"
end
* xyz 0 1
C 5.4770775088 0.8035267393 -0.344534289
C 4.9271355254 -0.5450918891 -0.7577130262
O 3.7013426406 -0.8616725199 -0.0652964445
P 2.3583182478 -0.0703788573 -0.3290099598
S 2.0795024806 0.527121009 -2.1785546575
O 2.4498837214 1.0730591144 0.7724128366
C 1.5149761469 2.1606261905 0.8676560665
C 2.1553855555 3.2500700738 1.7028321051
S 1.0131377909 -1.4794769111 0.4792753976
C -0.0068538331 -1.8506661952 -0.9951554412
S -1.7448037797 -2.0250794468 -0.5593586751
P -2.0900611233 -0.0158355684 0.0724638852
S -1.3188098101 1.373351632 -1.0688767648
O -1.5835051155 0.1014247573 1.5573713981
C -2.0305834255 -0.7773725696 2.6235738427
C -3.1293311537 -0.1163083377 3.4288233377
O -3.6677704786 0.0124434368 0.2288802853
C -4.5329456094 -0.0350842906 -0.9258831751
C -5.9390284886 0.2857119987 -0.4619681399
H 6.4452281599 0.9565789645 -0.8110563853
H 4.7990212422 1.5921475262 -0.6688975259
H 5.5813816431 0.8516122678 0.7361361743
H 5.5973466001 -1.3602081518 -0.4822614166
H 4.7301398599 -0.5688086005 -1.8342212559
H 1.2734400377 2.5119864445 -0.1415911515
H 0.5951690928 1.7891635972 1.3308828807
H 3.0548780784 3.615123638 1.2152589675
H 1.4518504772 4.0682408217 1.8161364713
H 2.4169624528 2.8580205697 2.6812944753
H 0.3025201733 -2.8049121121 -1.4136025757
H 0.1174159799 -1.0392829317 -1.7187058654
H -2.3686498644 -1.720359078 2.1860432999
H -1.1363574129 -0.952622034 3.2245214192
H -2.7836735175 0.8356826192 3.8219623323
H -3.9999404658 0.058453531 2.8025998741
H -3.4037312349 -0.7667505513 4.2532762904
H -4.1730192033 0.6936688445 -1.6592360612
H -4.4716259804 -1.0375593917 -1.3576330321
H -6.2628336571 -0.443363948 0.2749891734
H -5.9690266856 1.2766204049 -0.0176716773
H -6.6094537979 0.2558375948 -1.3144866199
*
