  18
        -47.58272534
 C          0.0008771405       -2.4705159697       -0.0000794582
 C          1.2025247035       -1.7819633872        0.0116487063
 C          1.1932058546       -0.3927526479        0.0149570884
 C         -0.0010326922        0.3144201053        0.0017082856
 C         -1.1943672486       -0.3945941766       -0.0121225756
 C         -1.2018625182       -1.7836617997       -0.0109843197
 C         -2.4779448065        0.3841311101       -0.0047421687
 F         -3.5598367205       -0.3607578542       -0.2716710193
 F         -2.7153651481        0.9677786484        1.1907908838
 F         -2.4810479250        1.3880956006       -0.9029366641
 C          2.4773147567        0.3850937531        0.0054047565
 F          2.7406207268        0.9224832465       -1.2065464689
 F          2.4640571794        1.4218840450        0.8645958204
 F          3.5523295858       -0.3507353277        0.3220045367
 H          0.0016362515       -3.5476898841       -0.0008576325
 H          2.1405836397       -2.3139023429        0.0220009559
 H         -0.0020904378        1.3936329309        0.0025954614
 H         -2.1391007855       -2.3170217439       -0.0218121776
  18
        -47.58265748
 C          0.0223628498       -2.4439637186        0.0946766775
 C          1.2091942614       -1.7388796820       -0.0004245889
 C          1.1788160749       -0.3492314050       -0.0597712605
 C         -0.0224634071        0.3409992727       -0.0240903974
 C         -1.2029646953       -0.3857566235        0.0697848604
 C         -1.1894843609       -1.7725779514        0.1314538814
 C         -2.4946138266        0.3779924772        0.1227218589
 F         -2.5882614597        1.3052010279       -0.8505566805
 F         -3.5825797407       -0.3961226860        0.0080252872
 F         -2.6412689390        1.0555675427        1.2824753712
 C          2.4799878911        0.3934458047       -0.1568912409
 F          3.2191664873       -0.0014572257       -1.2132952195
 F          2.3390788972        1.7213168332       -0.2755740111
 F          3.2641644982        0.1959778684        0.9238276302
 H          0.0396773683       -3.5199644025        0.1408502976
 H          2.1563730949       -2.2541592993       -0.0299061732
 H         -0.0447313467        1.4186936347       -0.0720251581
 H         -2.1170749193       -2.3178068369        0.2043443794
  18
        -47.58256398
 C          0.0010184853       -2.4199255335        0.0582587981
 C          1.1983928202       -1.7267493520        0.1072868721
 C          1.1877767314       -0.3365491278        0.0793007923
 C         -0.0032486792        0.3702511229        0.0022405899
 C         -1.1925961597       -0.3430296253       -0.0433788722
 C         -1.1988263545       -1.7329384410       -0.0183526242
 C         -2.5019280864        0.3846771279       -0.1478049285
 F         -3.4348940881       -0.1052856804        0.6900742020
 F         -2.4130981781        1.6966860590        0.1155758728
 F         -3.0413812248        0.2900104719       -1.3832844500
 C          2.5003717960        0.3906702108        0.1338185745
 F          2.3834616392        1.7255605995        0.1005237192
 F          3.1994326854        0.1036306825        1.2514643749
 F          3.3122651956        0.0602369315       -0.8919557403
 H          0.0026222041       -3.4967977320        0.0798084338
 H          2.1381447296       -2.2529005813        0.1671197583
 H         -0.0054120567        1.4488936590       -0.0179356796
 H         -2.1366967763       -2.2645648552       -0.0544367446
