! pbe def2-sv(p) def2/J RI DEFGRID1 loosescf d4 GCP(DFT/SV(P)) printgap
%output
    printlevel normal
end
* xyz 0 1
C 1.9349450979 -0.3629541838 -2.8557620657
C 2.3169640263 -1.4928427108 -1.9224451723
O 3.0358355797 -1.0359447226 -0.76345726
P 2.4770031887 -0.0382077453 0.3396800554
S 2.3739263633 1.8738680802 -0.0559010883
O 3.4907758259 -0.251901784 1.527550025
C 3.8456270474 -1.5516825648 2.0607403639
C 5.1538674302 -2.0339247354 1.4680037851
S 0.6637285477 -0.9937298289 0.9500835386
C -0.0853735932 0.4532566723 1.7626859115
S -1.8790267583 0.2938323348 1.8877144375
P -2.3052984706 0.2662327031 -0.1801538701
S -1.2077323893 1.3863454528 -1.3657770259
O -3.8685951043 0.5420782243 -0.2538495481
C -4.4201709391 1.8636247454 -0.3748441899
C -4.1957844406 2.6934354731 0.8730044551
O -2.2392063829 -1.2932841142 -0.4364090528
C -2.0344494965 -1.8534636772 -1.7494515382
C -3.2460999418 -1.660056709 -2.6367847006
H 1.2109292114 0.3003692903 -2.3832382674
H 2.8115248726 0.2257012707 -3.1149516165
H 1.4973376061 -0.7719733392 -3.761022969
H 3.0152138274 -2.1817349223 -2.4016203021
H 1.4311098915 -2.0392213879 -1.5853669977
H 3.9339444581 -1.3908975881 3.1366674646
H 3.0318923564 -2.253547373 1.8566053426
H 5.054271599 -2.1717247764 0.3948771426
H 5.9364628153 -1.3036492616 1.6542054378
H 5.4264956185 -2.9781661855 1.9288667801
H 0.1736391485 1.3401251705 1.1762219498
H 0.2871308165 0.5341418041 2.7811289071
H -3.967427149 2.3498067562 -1.2452943346
H -5.4813794198 1.6886740089 -0.5568472463
H -4.7347586247 3.6312596977 0.7837683086
H -4.5446454433 2.1563919038 1.751522477
H -3.1342714513 2.9080887301 0.9929533092
H -1.1525598685 -1.3805300479 -2.1941840469
H -1.8354573198 -2.9078012144 -1.5539004233
H -4.1354718623 -2.0468799716 -2.1466431443
H -3.389318263 -0.5992832197 -2.8392802923
H -3.0925985024 -2.1817008322 -3.5762133638
*
