! r2scan-3c def2/J RI DEFGRID2 scfconv6 printgap
%output
    printlevel normal
end
* xyz 0 1
C 4.2986413559 -2.2142693313 1.0019148295
C 4.6389188062 -0.7846784984 0.633210266
O 3.5067029184 0.092858878 0.7654405151
P 2.2397280254 -0.0004116564 -0.1876651036
S 2.6351914501 -0.3729419536 -2.0752273231
O 1.5164473882 1.3804800621 0.1257179833
C 1.7168605101 2.549697588 -0.6916398974
C 3.1134587224 3.1116043241 -0.530769518
S 0.9319293425 -1.3140702609 0.8139989751
C -0.2073164739 -1.5909897009 -0.5735837132
S -0.941923903 -0.0681465037 -1.2411019341
P -2.5365386025 0.1319156928 0.1597146593
S -3.6076968125 1.7568276714 -0.0440611414
O -1.8675927745 -0.0940287835 1.5771603576
C -1.2315097602 0.9828010338 2.293011319
C -0.8978931962 0.4684360479 3.6779826695
O -3.3056865387 -1.2533631821 0.1110278437
C -4.4607743781 -1.4368008672 -0.7277801601
C -4.0915263463 -1.498770626 -2.1967252917
H 5.2061608503 -2.8094547068 1.0074587956
H 3.8354193306 -2.2512318279 1.9846673904
H 3.6069538018 -2.6325027603 0.2718603562
H 4.9998111931 -0.7298595917 -0.3988661328
H 5.3804474202 -0.358485606 1.3101506308
H 1.520729599 2.2794261184 -1.7347141187
H 0.9529342823 3.2489965837 -0.3474017147
H 3.3270314933 3.2906868262 0.5197588842
H 3.8431524023 2.4047916509 -0.9242388329
H 3.1918717817 4.0435514563 -1.0817212864
H -0.9926538615 -2.2468280158 -0.2048208222
H 0.3398995694 -2.0417896409 -1.4000200201
H -0.3261395967 1.2836536754 1.756193236
H -1.921091481 1.8327382382 2.3269799312
H -1.8044203492 0.1475712241 4.1825756038
H -0.2179722006 -0.3758304344 3.600651027
H -0.4270588527 1.2616952621 4.2490049836
H -4.8921379805 -2.3760797826 -0.3789077412
H -5.1597359424 -0.6150639313 -0.5427863864
H -3.3562801059 -2.2792975496 -2.3747568947
H -4.9821302605 -1.7056787637 -2.7814029684
H -3.6752595884 -0.5433212483 -2.5153540299
*
