! r2scan-3c def2/J RI DEFGRID2 scfconv6 printgap
%output
    printlevel normal
end
%cpcm
    smd true
    smdsolvent "water"
end
* xyz 0 1
C 4.9998057885 -2.6782552147 -1.2822852995
C 4.0807327298 -1.4885747183 -1.4738889838
O 3.0544248582 -1.5547492678 -0.4636832436
P 2.2143809631 -0.2792860429 -0.0352823207
S 3.258066225 1.3454369328 0.3238691944
O 1.3562823867 -0.8450043426 1.1645649802
C 1.7670519544 -0.6741091481 2.5388847532
C 3.0047237445 -1.4867317727 2.8523669484
S 0.7622658349 -0.117784869 -1.5683237094
C 0.1781942813 1.5312338621 -1.0969062905
S -0.7785977175 1.5167516787 0.4359272016
P -2.4689771848 0.4861768451 -0.37150493
S -2.9479989873 1.000175265 -2.1945628086
O -3.5744015205 0.7284036969 0.7424918464
C -4.1945672473 2.0208351637 0.9162128338
C -5.4154518139 1.8323546298 1.7931922947
O -2.1955990042 -1.0551640609 -0.2344249032
C -1.9503089149 -1.7103810493 1.037839423
C -1.1941259771 -2.9919388427 0.758439087
H 5.4783839206 -2.630169272 -0.3083135157
H 4.4296771733 -3.6000859638 -1.3502134016
H 5.7607977353 -2.6678485793 -2.0556115769
H 3.5961793452 -1.5108339531 -2.4537223483
H 4.6201546095 -0.5416793112 -1.3633196142
H 1.9437717119 0.3911379535 2.7180557781
H 0.9041757747 -1.0089798106 3.1156954037
H 2.8448641122 -2.5305268494 2.596198655
H 3.8479959301 -1.1074075619 2.276273463
H 3.233957544 -1.4023691434 3.9099687402
H -0.4534384581 1.8874758931 -1.9111625818
H 1.0334090386 2.1878087083 -0.934387955
H -3.4648099336 2.6889682002 1.3813274328
H -4.461966884 2.4127049195 -0.0703203841
H -6.1149174846 1.1512371954 1.3168507469
H -5.1224737244 1.4224021879 2.7552088638
H -5.8968308737 2.7930426527 1.9430184476
H -1.3742118917 -1.0316861076 1.6735280287
H -2.9204302402 -1.9037425224 1.4987969443
H -0.222348877 -2.7680161911 0.3250183039
H -1.0560122365 -3.5347582272 1.6879684345
H -1.754420646 -3.6067794178 0.0599436831
*
