! pbe def2-sv(p) def2/J RI DEFGRID1 loosescf d4 GCP(DFT/SV(P)) printgap
%output
    printlevel normal
end
* xyz 0 1
C 2.7970476032 0.5045389118 -2.8884178566
C 1.9605001166 -0.7252975609 -2.6058555235
O 1.2805095008 -0.6413495245 -1.3329953025
P 2.0345823522 -0.5105577746 0.0585513998
S 2.5833612429 1.2980944135 0.6040376868
O 3.1993476692 -1.572605577 -0.1551312889
C 3.962035696 -2.2183010338 0.8825111578
C 4.5462329522 -1.2515152016 1.8903570149
S 0.7074677227 -1.4853249427 1.3848146975
C 0.0198569784 -0.0528123971 2.2659920116
S -1.7796097075 0.0810277304 2.1067581276
P -1.946261588 0.5102103018 0.0578223572
S -0.7225170602 1.8348216874 -0.7259267471
O -3.481532447 0.8938497167 -0.0872288643
C -3.9767923079 2.1968192465 0.2801665462
C -5.2966983189 2.414238805 -0.4321227813
O -1.8970603886 -0.942982761 -0.5622043062
C -1.81593529 -1.1713519671 -1.9837621157
C -3.1896937536 -1.1644523109 -2.6206851638
H 2.1864303145 1.4013409449 -2.798010957
H 3.6146607209 0.5732284559 -2.1717385901
H 3.2050325361 0.4448602111 -3.8923894307
H 2.5750356203 -1.6279389918 -2.6068639519
H 1.1459094322 -0.8264850588 -3.3252761517
H 3.3094700839 -2.9433796681 1.3761218374
H 4.7469253085 -2.7400577432 0.3316223379
H 5.1356269973 -0.4869577692 1.3898930884
H 3.7506564335 -0.7591999162 2.4472192847
H 5.1787083924 -1.7972468768 2.5831037734
H 0.505456936 0.8533694722 1.8885003144
H 0.2078999751 -0.1833085328 3.3287635856
H -4.1010055945 2.2170534012 1.3658866818
H -3.2337458736 2.9475240078 -0.0103277939
H -5.9910479153 1.6207769832 -0.1717291214
H -5.7106777751 3.3699597728 -0.1281917454
H -5.148459176 2.4157278662 -1.5084107298
H -1.1725551014 -0.4001979054 -2.4208017651
H -1.3330951739 -2.1464637338 -2.0706479353
H -3.6353688026 -0.1757639561 -2.5389576022
H -3.0983606143 -1.4299432004 -3.6693722025
H -3.8339977807 -1.8815708319 -2.1198833102
*
