! pbe def2-sv(p) def2/J RI DEFGRID1 loosescf d4 GCP(DFT/SV(P)) printgap
%output
    printlevel normal
end
* xyz 0 1
C 3.8595320786 -1.9465398234 -2.4051970317
C 4.4895936545 -1.6957375767 -1.0507972358
O 3.512447595 -1.3841150542 -0.0393859041
P 2.6224674344 -0.0674847588 -0.0740048314
S 3.5131031506 1.5719011428 -0.6533508807
O 2.1243101779 0.0232800695 1.4179483231
C 1.5366289443 -1.0984148367 2.1249599537
C 0.6019255875 -0.5490183795 3.1822544005
S 0.9117198671 -0.646196925 -1.2177530887
C 0.2757411096 1.0284461013 -1.4558002602
S -0.4017511262 1.7380445933 0.0700521732
P -2.1782433038 0.5906086457 0.064275372
S -3.0574308087 0.4154741868 -1.683296738
O -2.8784158248 1.4131836391 1.2220128008
C -4.0466866124 0.9426311692 1.9302524139
C -5.3173825835 1.1722666768 1.1361815283
O -1.8364994416 -0.8018840008 0.76011211
C -1.9837926147 -2.0834712214 0.120726779
C -3.3215726817 -2.6986121388 0.4800050785
H 4.6200103229 -2.3033047949 -3.0923337099
H 3.0679243439 -2.6872553753 -2.325046622
H 3.4379798878 -1.0223102796 -2.7973313642
H 5.2027178134 -0.8677872515 -1.1054089686
H 4.9835903707 -2.5881401396 -0.6638978618
H 1.0054765959 -1.7263764344 1.4034840614
H 2.3547182464 -1.6704098621 2.566493032
H 0.18695328 -1.3721845124 3.7549366216
H 1.1445899636 0.1179329702 3.84591032
H -0.2075699825 0.0091990899 2.7170659718
H -0.5081798585 0.9718681316 -2.2124870664
H 1.0908696373 1.6786895478 -1.7745043243
H -3.9136441836 -0.1163897114 2.1654514352
H -4.0439491766 1.5276249736 2.8517420769
H -6.1718656669 0.8585209669 1.7274646879
H -5.4192518484 2.2255276783 0.8880863325
H -5.2968360355 0.6022890421 0.2091698373
H -1.8926512173 -1.9601414085 -0.9622328862
H -1.152087868 -2.6844470496 0.4902533417
H -3.4253286388 -2.7794180264 1.5586005622
H -4.1291701814 -2.08428753 0.0862496484
H -3.387463941 -3.6879597318 0.0391803233
*
