! wb97x-v def2-tzvp def2/J RIJCOSX DEFGRID2 scfconv7 GCP(DFT/TZ) printgap
%output
    printlevel normal
end
* xyz 0 1
C 5.5654174696598675 -1.5866148872274932 -0.9049290915893423
C 4.252893815016843 -1.2762282549639867 -1.5778286892330844
O 3.1591254840036744 -1.5356482773962798 -0.62679428423463
P 2.2069073841350084 -0.3448659458985363 -0.10970669445327862
S 3.060597828764262 1.3183070515898339 0.4376750750109305
O 1.3438680172705024 -1.1198425251858888 0.9978061423792964
C 1.723468238778044 -1.1183901814160502 2.41947190169623
C 2.928157948455566 -1.988900655373056 2.6788675534856825
S 0.8474748929225085 -0.20487336409204968 -1.728267165753154
C 0.0975104030467415 1.4402508466843589 -1.414969283364629
S -0.9437492790205326 1.605232125442532 0.0854616490981799
P -2.632834334994064 0.43188064075740756 -0.4600887641850897
S -3.1579835518566726 0.5373224257915091 -2.328525319898033
O -3.6824432022789515 0.903515044462586 0.6642104209073555
C -4.32630015366897 2.2246875471581973 0.6024856724491572
C -5.494915954170201 2.19605828489375 1.5519059539272517
O -2.3616363921289527 -1.0839058789167808 -0.018512242709924208
C -2.052387075128651 -1.4433073467621786 1.377962564362717
C -1.5739430704736774 -2.8713434455136495 1.3714198400391937
H 6.376937193532782 -1.45400877669254 -1.6277028488792427
H 5.739487077825333 -0.9139777270917633 -0.06013024572061768
H 5.5857241616764854 -2.620699307521205 -0.5491373246368753
H 4.061021708587836 -1.9335212244870825 -2.4295396113698957
H 4.207860072615784 -0.23610973531492682 -1.9148932726743924
H 1.8876669023620196 -0.0815614572366876 2.72875500477172
H 0.8321433902029169 -1.5032923800775844 2.919625673568884
H 3.826412867584497 -1.5904149169467525 2.1973632763103255
H 3.1078734939037256 -2.022546496954087 3.7584650363638694
H 2.7566187349542055 -3.0095423321454993 2.325021825739478
H -0.5024640712191338 1.6650405381873195 -2.3018296217638667
H 0.8902067118891094 2.186235599961629 -1.3083901369644622
H -3.5852082727446817 2.9759532215949576 0.8919470078105163
H -4.644723486342634 2.407110652943297 -0.42866908498115475
H -5.982692584668985 3.175495567356946 1.5393554994019145
H -6.2258077029629355 1.4412488606116327 1.2492160593860149
H -5.165336080035621 1.987999818823708 2.573657567822653
H -1.28512182784213 -0.758188460543514 1.753888343433761
H -2.967369357042849 -1.3216525392651117 1.96374874787804
H -1.3474467922412994 -3.173873835691112 2.398438956405721
H -2.346717265528923 -3.538624158412658 0.9793194202563983
H -0.6679957234573464 -2.979798536710691 0.7691536246837091
*
