! pbe def2-sv(p) def2/J RI DEFGRID1 loosescf d4 GCP(DFT/SV(P)) printgap
%output
    printlevel normal
end
* xyz 0 1
C 5.3649669386 -1.9034650601 -1.4704748085
C 4.6156100994 -0.6204486474 -1.1479353643
O 3.1930506404 -0.8038281467 -1.2829743823
C 2.5229790038 -1.2823083099 -0.2527586391
O 3.0148007071 -1.5813711515 0.8108190756
C 1.043388586 -1.4207382736 -0.5709972348
C 0.4719369858 -0.0928225243 -1.0697721464
H 1.0115097325 0.2278603779 -1.9649609474
C 0.5713146383 0.9845259583 -0.0083956239
O -0.411756063 1.5427707604 0.4400058768
O 1.8007563534 1.2129265324 0.3568612297
C 2.0375486577 2.1909931532 1.3959844303
C 2.1119733311 3.5917341761 0.8129801317
S -1.2744165145 -0.2335863299 -1.5653007154
P -2.2617178089 -0.1295367737 0.2990131855
S -1.5285749795 -0.7427910052 2.0107118926
O -3.0654686192 1.2405588732 0.4652643057
C -3.6404645969 1.9164655587 -0.6659211964
O -3.4004895985 -1.1541605289 -0.2428228872
C -4.4573027287 -1.5792828609 0.6181423011
H 6.4327615998 -1.7160958424 -1.4273900146
H 5.1131540947 -2.6750154303 -0.7464153226
H 5.1016821543 -2.2513204578 -2.4654382376
H 4.8561957092 0.1695914973 -1.8591001016
H 4.8282208325 -0.2948303411 -0.1261116433
H 0.5264661093 -1.7551995656 0.3315899756
H 0.9216535814 -2.1699585757 -1.3546791719
H 1.2345928921 2.1109783996 2.1340421214
H 2.985663315 1.8844390458 1.8379157526
H 2.8725148334 3.6364303037 0.038700375
H 1.1510332553 3.8727792105 0.3884041313
H 2.3639248872 4.2903725845 1.6037897865
H -4.0487125108 1.197032742 -1.3772554324
H -2.8738670547 2.5223698398 -1.147559216
H -4.4263740465 2.548071443 -0.2588559263
H -4.0437231005 -2.0559238146 1.5088997822
H -5.0376334735 -2.2926232186 0.038668291
H -5.075101831 -0.731087584 0.9169535824
*
