! pbe def2-sv(p) def2/J RI DEFGRID1 loosescf d4 GCP(DFT/SV(P)) printgap
%output
    printlevel normal
end
* xyz 0 1
C 4.8007560327 -3.4296292868 0.2699202417
C 4.5070833503 -1.9956327049 -0.1278053965
O 3.1959108096 -1.9522530438 -0.729082171
C 2.4706012011 -0.8679167244 -0.6014217753
O 2.8352837311 0.1469605833 -0.0375120504
C 1.0994805153 -1.0316407737 -1.2124957363
C 0.4431833501 0.3294620399 -1.4094547969
H 0.780025288 0.8192550836 -2.3242066345
C 0.6773815974 1.2569789476 -0.2318139372
O 0.2477798546 1.008514368 0.8792592297
O 1.2501243951 2.3759983258 -0.5906592009
C 1.4988539467 3.3701566403 0.4257503961
C 0.2369744137 4.1522656383 0.7532956747
S -1.3661920617 0.1942879839 -1.5492810707
P -1.9900857886 -0.2761189724 0.4434800758
S -1.095644048 -1.6750962497 1.4877912978
O -2.328926145 1.0693505353 1.2095157257
C -3.2744197639 2.0239256151 0.6877678993
O -3.4897297087 -0.7197543769 0.0694498802
C -3.7684719716 -1.9770307013 -0.552471138
H 4.7455385022 -4.0737735507 -0.6021650537
H 5.7964917169 -3.4856558852 0.6969142855
H 4.0769304138 -3.7712767069 1.0044756479
H 5.2208059415 -1.6343362175 -0.8734974404
H 4.5179598654 -1.3193831832 0.732212188
H 0.5246367258 -1.6312267632 -0.4951101733
H 1.1583523147 -1.5875471094 -2.1467365258
H 1.8875614048 2.8608288646 1.3118040641
H 2.2664291231 4.0069551146 -0.0131490157
H -0.501208539 3.4931923216 1.205398782
H 0.4800271001 4.941412621 1.4569566927
H -0.1774358162 4.5903828425 -0.1506315368
H -3.2020648976 2.8849559694 1.3477478426
H -4.2765994909 1.6005653596 0.7119664665
H -3.01064128 2.2956497272 -0.3349903951
H -3.2031206544 -2.770478484 -0.0605792802
H -3.5084933924 -1.9315095624 -1.6094177636
H -4.8360665911 -2.137056774 -0.4257157395
*
