! r2scan-3c def2/J RI DEFGRID2 scfconv6 printgap
%output
    printlevel normal
end
%cpcm
    smd true
    smdsolvent "water"
end
* xyz 0 1
C 4.5394497137 -1.724170373 -0.8225479445
C 4.6553580814 -0.3043632231 -0.306422074
O 3.5110042577 0.0891658091 0.4697483442
P 2.0705217434 0.3049832281 -0.1708426474
S 2.0921864004 1.1073006449 -1.9629413787
O 1.340527643 1.0976131331 0.9911316767
C 1.3747405798 2.533127201 1.0914982012
C 2.7640753119 3.0529021196 1.39190218
S 1.1794248701 -1.5848955269 0.0501580654
C -0.0482718396 -1.5583729659 -1.3053002989
S -1.7364252012 -1.8046936289 -0.7193263794
P -2.0127272901 0.0918009286 0.1982739333
S -1.3440861055 1.6146194563 -0.8389483104
O -1.3625989259 0.0239223931 1.630124246
C -1.3779798469 -1.1050829556 2.5419878065
C -2.7664505932 -1.6509548415 2.7905091485
O -3.5641591809 0.1697296838 0.5240622798
C -4.5518913758 0.5381026041 -0.4540776459
C -5.0605671065 -0.6694396956 -1.2166071406
H 4.3108251824 -2.405845503 -0.0072317021
H 3.7462713524 -1.7851708314 -1.566447334
H 5.4774188581 -2.0141959808 -1.2849840127
H 4.7647209541 0.397694779 -1.1393715672
H 5.4903642156 -0.1939644983 0.3867118818
H 0.9911992327 2.9538491874 0.1554188104
H 0.671264357 2.7514586677 1.8968722473
H 3.4201505159 2.8710313404 0.5415037831
H 2.7128556314 4.1216409702 1.5752043917
H 3.1705275203 2.5512491392 2.2662890813
H 0.165458276 -2.3920882065 -1.9687804226
H 0.0308344891 -0.6027082336 -1.83100735
H -0.7188305628 -1.8779445946 2.1357519904
H -0.9365553991 -0.6903807223 3.4494655816
H -2.7096836194 -2.4116787917 3.5631081438
H -3.4327870616 -0.8560536035 3.114975548
H -3.165315947 -2.0982573532 1.8823931544
H -5.348410451 1.0009511816 0.1311856486
H -4.1175163236 1.2821560431 -1.1304285077
H -4.2664214817 -1.1061639713 -1.8174996785
H -5.428927752 -1.4204495812 -0.5236204968
H -5.8687857667 -0.3587876018 -1.8709352719
*
