! pbe def2-sv(p) def2/J RI DEFGRID1 loosescf d4 GCP(DFT/SV(P)) printgap
%output
    printlevel normal
end
* xyz 0 1
C 2.1892199535 -3.8108580531 0.683687726
C 2.8078698486 -2.426397432 0.651761781
O 2.3631466138 -1.7526651951 -0.5414485373
C 2.0783914118 -0.4745879033 -0.4976090771
O 2.1606456087 0.2325871405 0.4883166082
C 1.6561542451 0.0620282253 -1.8525865333
C 0.391811766 0.9184366498 -1.7332210747
H 0.3193902309 1.5939214272 -2.5883149007
C 0.3934489675 1.7349840989 -0.4558009215
O -0.4073348267 1.5388931684 0.444377097
O 1.2706461437 2.6907267763 -0.4777318552
C 1.4369336131 3.4873805002 0.715726946
C 2.4437638753 4.5769258302 0.409117578
S -1.1401587144 -0.0730634351 -1.7860528645
P -1.7175168505 -0.4923190905 0.2124397084
S -0.5153743853 -1.2310087278 1.5836909354
O -2.8424199596 0.5402785598 0.6600619701
C -2.7951294948 1.3460646949 1.8372540503
O -2.7978675511 -1.614250122 -0.2091740122
C -2.4044464978 -2.919166224 -0.633852086
H 2.5982638159 -4.3655021454 1.5211375243
H 1.1125770276 -3.7294769585 0.8088119499
H 2.40479138 -4.3361163629 -0.2415598803
H 3.8987201694 -2.4771173423 0.6005547326
H 2.5064863092 -1.8337889396 1.5205833744
H 1.4929429265 -0.7616263865 -2.5455197822
H 2.4718887479 0.6914918212 -2.2148965165
H 0.4616350107 3.8949957402 0.9982004774
H 1.7811300675 2.8172730561 1.5095957088
H 2.0850288364 5.1994155962 -0.4049118758
H 2.5853469709 5.188882609 1.293494541
H 3.393294364 4.1344817008 0.1248675741
H -1.9904605777 1.0159095687 2.496806755
H -3.75865349 1.2308282587 2.3299592906
H -2.6294056455 2.38231512 1.54761127
H -1.6616438084 -3.3268046647 0.0554825072
H -1.9954611765 -2.8821160968 -1.6438639716
H -3.3100738852 -3.519994641 -0.6106865726
*
