! pbe def2-sv(p) def2/J RI DEFGRID1 loosescf d4 GCP(DFT/SV(P)) printgap
%output
    printlevel normal
end
* xyz 0 1
C 4.4517916728 0.8698312239 -1.9414897176
C 2.9673270109 0.5743236376 -1.9749650569
O 2.3202810452 1.0539921775 -0.7705086454
P 2.019396647 0.1670421819 0.4853838761
S 0.970749195 1.0917497371 1.8502128979
O 3.4882069863 -0.2343611199 0.9579060248
C 3.6995020243 -1.0203653465 2.1470162308
C 5.1716138281 -0.9479706396 2.4984858603
S 1.2352922599 -1.7036734358 -0.1831888774
C -0.2762496963 -1.8167418336 0.8246230992
S -1.7976819322 -1.9445333325 -0.1471516676
P -2.0637231858 0.0646660819 -0.7048393211
S -0.6787421951 1.0061600624 -1.7186898576
O -2.3749113119 0.7005059848 0.7298647402
C -2.2500670189 2.1073894296 0.9834087942
C -3.4130376432 2.8783325595 0.3951866017
O -3.3940197577 0.0314549231 -1.5635908589
C -4.5152899565 -0.8636254264 -1.3709975625
C -5.2256546927 -0.6322097391 -0.054115299
H 4.9237492531 0.3334369998 -1.1226938559
H 4.8947460135 0.5563002565 -2.881513006
H 4.6148220329 1.9351820129 -1.8041973893
H 2.7748865174 -0.4974936277 -2.0781662646
H 2.4606017327 1.1108189516 -2.7798711763
H 3.075365824 -0.6118728337 2.9488077886
H 3.3886250594 -2.0477595432 1.9364966825
H 5.3516619057 -1.5306394972 3.3958104351
H 5.7696445277 -1.3472658937 1.6845338021
H 5.4615305522 0.0837927896 2.6761916553
H -0.3267020669 -0.9440820804 1.4822609714
H -0.2220268339 -2.7416542152 1.3929533717
H -2.2082891778 2.1832528929 2.0710874865
H -1.3004185552 2.4586247171 0.5652475936
H -3.4314900055 2.7420604917 -0.6861139127
H -4.3504921354 2.5259875519 0.8165731087
H -3.2922578247 3.9338762512 0.6173394397
H -5.1608757764 -0.6402938712 -2.2220560949
H -4.1508195908 -1.891257124 -1.4434076398
H -4.5529540792 -0.8293959607 0.7777205623
H -5.5781179878 0.3938920213 0.0096824053
H -6.0749082404 -1.3051866575 0.0108181808
*
