! pbe def2-sv(p) def2/J RI DEFGRID1 loosescf d4 GCP(DFT/SV(P)) printgap
%output
    printlevel normal
end
* xyz 0 1
C 4.9021951535 0.4685575312 -1.2596936065
C 4.5424179808 0.5926071553 0.2063386564
O 3.3895729286 -0.1966349467 0.547342296
P 1.9332205828 0.1599976863 0.018042259
S 1.5633038276 2.0800340768 0.025165302
O 1.0028837359 -0.6936370108 0.9719253686
C 1.368337409 -2.0354665421 1.398875768
C 1.9888288209 -2.0038570151 2.7791226516
S 1.8696040324 -0.8950687632 -1.8385474637
C 0.0800994169 -1.1240625781 -2.0417192487
S -0.8901342629 0.4010059895 -1.8737750793
P -1.8614923632 0.0439039284 -0.0290245186
S -1.998795406 -1.8526151692 0.4654757718
O -3.273959986 0.7440160166 -0.2389977375
C -4.3104550912 0.1226362044 -1.0256565213
C -5.6240570759 0.7966658896 -0.6857075427
O -1.1670968163 1.0465989828 0.9702901895
C -1.8341876938 1.7049641679 2.0698842397
C -2.3380946507 0.7144702417 3.0981396553
H 5.8371169564 0.987319329 -1.445165597
H 5.0056649058 -0.5769585045 -1.5385477068
H 4.1217388695 0.9183596169 -1.8723282275
H 4.3355030654 1.6356985926 0.4658316344
H 5.3292749623 0.1967031616 0.8497950285
H 0.4264629713 -2.5895481302 1.4001752014
H 2.0531879582 -2.4670799294 0.6649364709
H 1.3085046473 -1.5319803471 3.4830949553
H 2.1831395824 -3.0228664219 3.0988391346
H 2.9212841492 -1.4460678342 2.7628547661
H -0.2962225589 -1.8525884414 -1.3170541316
H -0.0487607925 -1.4850310059 -3.0593196033
H -4.0569824217 0.2492140491 -2.0814179791
H -4.3332207047 -0.9464711344 -0.7883079794
H -6.4123678266 0.3588194558 -1.2889791328
H -5.8584658442 0.6568383307 0.3658685161
H -5.5599746712 1.8606638274 -0.8948201328
H -1.0570499953 2.3550762405 2.4764470722
H -2.6495971111 2.3088259138 1.6665518145
H -1.5192363475 0.0941674344 3.4555417274
H -2.7752058314 1.2518461181 3.9337954707
H -3.0936942333 0.0668593399 2.6542854884
*
