! pbe def2-sv(p) def2/J RI DEFGRID1 loosescf d4 GCP(DFT/SV(P)) printgap
%output
    printlevel normal
end
* xyz 0 1
C 4.9182429477 -1.3940773907 -1.817034543
C 4.8820594198 -0.0042803641 -1.2159893502
O 3.8651123347 0.1106768432 -0.2049984524
P 2.3174447537 0.0583643333 -0.5595723924
S 1.8497843444 1.0039952733 -2.2192142472
O 1.658941294 0.5852069189 0.7813745312
C 1.7001124234 1.9792710145 1.1584058038
C 0.8527360635 2.1380502222 2.4031009761
S 1.7759209179 -1.9676746967 -0.4121561783
C -0.0093972348 -1.7470493895 -0.610043258
S -0.8292789767 -1.4130472816 0.9848470884
P -2.1001880145 0.1311864736 0.3304715768
S -1.3618365445 1.6337491338 -0.6810674007
O -2.8387437843 0.6347103678 1.6368272489
C -3.5700382625 -0.2497404005 2.5243850479
C -2.7428942917 -0.580610097 3.7497799532
O -3.128444488 -0.7758432541 -0.5015537682
C -3.9793295918 -0.2196943938 -1.5206648074
C -5.0881874771 0.6219445122 -0.9225374638
H 5.7612582088 -1.4720147806 -2.4958983073
H 5.0108299953 -2.1422661319 -1.0340602298
H 3.9984813583 -1.5792781283 -2.3710560872
H 4.6858051327 0.7452882671 -1.9895127178
H 5.8058766056 0.2354788338 -0.6881481651
H 2.7420002856 2.253163152 1.3406487918
H 1.3090496784 2.5751011548 0.3262338768
H 1.2131431012 1.4736602025 3.1830807379
H 0.9075428384 3.1670984355 2.7424713203
H -0.1842401966 1.8925447621 2.180255383
H -0.4001971871 -2.6764879569 -1.0149440064
H -0.1905636902 -0.9071281201 -1.2861407503
H -4.4650735234 0.3144568503 2.7922594662
H -3.8481104269 -1.1533196935 1.9770712097
H -1.8533908792 -1.1405905546 3.4685651669
H -2.4393827639 0.3334196967 4.2525236758
H -3.340630847 -1.1811894854 4.4281264661
H -3.3643995452 0.3812127072 -2.1987027718
H -4.3679308639 -1.0922675388 -2.0474771396
H -5.7313761013 0.9862042229 -1.7174539397
H -5.6769332716 0.0333249544 -0.2238614359
H -4.6585334663 1.4750020504 -0.3976336448
*
