! pbe def2-sv(p) def2/J RI DEFGRID1 loosescf d4 GCP(DFT/SV(P)) printgap
%output
    printlevel normal
end
* xyz 0 1
C 2.4321980934 0.0002936366 -0.7484007628
N 1.037852967 -0.0002083097 -0.3692273816
C 0.6795446643 1.1974591776 0.369843018
C -0.8308147373 1.1829901407 0.7126815084
N -1.521044018 -0.000435524 0.2424145812
C -0.8310748233 -1.1851580762 0.7099389945
C 0.6804565736 -1.1966784646 0.3721663723
C -1.783796853 0.0014802805 -1.1865959397
H 2.6377940277 -0.8864097981 -1.3458889107
H 3.1081620279 0.0026777807 0.1226969563
H 2.6360834454 0.8850500651 -1.349372869
H 1.2778209317 1.2827412443 1.2970753187
H 0.9187074217 2.0565493325 -0.2609887376
H -0.9588691615 1.2169797323 1.7989680203
H -1.3251166287 2.0569729086 0.2878579129
H -0.9625937879 -1.2239895495 1.7956773152
H -1.3231406691 -2.0577760237 0.2797800329
H 1.2760384773 -1.2776567901 1.3015179969
H 0.9237721772 -2.0570337794 -0.2553098543
H -2.3732639381 -0.8822373927 -1.4261356222
H -0.8751621414 0.003421163 -1.796800377
H -2.3747123497 0.885050224 -1.42327641
*
