  26
        -51.28477693
 C          3.2129718584        2.0907040434       -1.3046989797
 O          2.2474474317        1.0288194464       -1.2765206668
 P          2.2113793265       -0.0002300841       -0.0740489957
 S          2.2293792156        0.7273409320        1.7478157571
 O          3.3977391429       -0.9841151617       -0.4327322049
 C          3.9256756777       -1.9342002327        0.5032643736
 O          0.9458077768       -0.9027677545       -0.4753791280
 C         -0.3733131518       -0.5805570385       -0.3162909406
 C         -1.2883190037       -1.6289516232       -0.4183124964
 C         -2.6349866258       -1.3727484138       -0.2842398383
 C         -3.0622216627       -0.0671793797       -0.0436501469
 C         -2.1497262489        0.9800950732        0.0592642905
 C         -0.8022764953        0.7205451525       -0.0808692053
 N         -4.4543295427        0.1999689948        0.0986434591
 O         -4.8079345517        1.3508851095        0.2952642425
 O         -5.2353075671       -0.7336061183        0.0174908031
 H          2.8309696559        2.8206540729       -2.0142508777
 H          4.1758030342        1.7033020344       -1.6331818017
 H          3.3114672820        2.5352045552       -0.3126708660
 H          3.8761217400       -1.5309311470        1.5164627453
 H          4.9598665562       -2.1016356707        0.2119220715
 H          3.3559989965       -2.8598792987        0.4439709610
 H         -0.9251891404       -2.6262231147       -0.6032030055
 H         -3.3660234548       -2.1623650735       -0.3590588822
 H         -2.5089246825        1.9797504883        0.2465965138
 H         -0.0766319701        1.5151680971       -0.0038022294
