! r2scan-3c def2/J RI DEFGRID2 scfconv6 printgap
%output
    printlevel normal
end
* xyz 0 1
C -1.8916992642 -1.473e-07 -3.59347e-05
C -1.2021229301 -1.2015128325 7.985e-06
C 0.1828773729 -1.2116809479 1.06918e-05
C 0.8450873327 8.71e-08 -8.6654e-06
C 0.1828775545 1.2116811757 2.72843e-05
C -1.2021230383 1.20151305 1.27552e-05
F 2.2134987618 -1.675e-07 -5.399e-06
H -2.9701065341 -9.381e-07 7.20723e-05
H -1.739561963 -2.1363872181 6.77447e-05
H 0.7450121055 -2.131395923 -6.49571e-05
H 0.7450126072 2.13139516 -5.9842e-05
H -1.7395612518 2.1363874874 -8.14641e-05
*
