! pbe def2-sv(p) def2/J RI DEFGRID1 loosescf d4 GCP(DFT/SV(P)) printgap
%output
    printlevel normal
end
* xyz 0 1
C 5.7409386425 -0.3419988855 -0.1760490096
C 4.3341676065 -0.7099695887 -0.6016568009
O 3.427537065 0.2387079281 -0.0037122736
P 1.9291885202 0.375063884 -0.5223930095
S 1.7599107186 0.656441914 -2.4496385493
O 1.395658099 1.5676141461 0.3542636297
C 1.5613119258 1.6286410412 1.7932584212
C 2.7614365835 2.4750561823 2.1624276392
S 1.0838632907 -1.4332385468 0.215672742
C -0.142476985 -1.78846128 -1.0815307936
S -1.8265007427 -1.9133990081 -0.4489748687
P -2.0583407005 0.1064662439 0.178235819
S -1.4979816017 1.444197691 -1.1425586674
O -1.2719123794 0.2744617543 1.5378860133
C -1.7128238438 -0.1930936678 2.8407399448
C -1.7475916889 -1.7036478265 2.9397532925
O -3.5699196247 0.192364281 0.65470604
C -4.6533780214 0.4915781149 -0.2438846592
C -4.8644528407 -0.5964935936 -1.2760130479
H 5.9843503721 0.6597683008 -0.5190010033
H 5.8237009712 -0.3759169391 0.9063553557
H 6.4393047023 -1.0484506266 -0.6122194108
H 4.0590625874 -1.7093881615 -0.2538204911
H 4.2165899696 -0.6630133787 -1.6892871752
H 0.6307343988 2.0749766518 2.1494989562
H 1.6556745757 0.6097405433 2.1797087985
H 2.6641735134 3.4656118897 1.7262838267
H 2.8137759631 2.5612912265 3.2432870989
H 3.6741233658 2.0168888103 1.7915482023
H 0.0923703112 -2.7595634834 -1.5097699135
H -0.0784314865 -0.9997766622 -1.8369961264
H -0.9711635253 0.2335998576 3.5181054767
H -2.6947975069 0.237912758 3.0417534949
H -0.7980213125 -2.1265791652 2.6190228384
H -1.9306708752 -1.9813954591 3.973086024
H -2.5417540384 -2.1100607109 2.317997479
H -5.5151170611 0.5930479266 0.4175059176
H -4.4415373194 1.4479135468 -0.7317760711
H -4.0237165079 -0.6212694603 -1.9677224228
H -4.9515757645 -1.5668165469 -0.7939211766
H -5.7709396696 -0.3874879571 -1.8349882547
*
