! pbe def2-sv(p) def2/J RI DEFGRID1 loosescf d4 GCP(DFT/SV(P)) printgap
%output
    printlevel normal
end
* xyz 0 1
C 4.3464899869 -1.8770024859 -0.7755000276
C 4.5872360057 -0.4036705413 -0.5156159797
O 3.562834894 0.180939666 0.3051086824
P 2.0592419665 0.3496889051 -0.1898251085
S 1.8840695029 0.8374028878 -2.0839089197
O 1.5118888551 1.3668234844 0.8989125991
C 1.5626060282 2.7938467425 0.7147028945
C 2.9824878294 3.3132085013 0.6433022976
S 1.1330896193 -1.4224807042 0.4712082642
C -0.0928873855 -1.6892691609 -0.8648085873
S -1.7534183092 -2.0293929678 -0.2391798384
P -2.3765280062 -0.066131146 0.2935005159
S -1.3746627216 1.399976401 -0.5553158191
O -2.4795099022 -0.0132164512 1.8724333631
C -1.3487814794 0.0237900731 2.7628047684
C -1.0738091427 -1.3497972246 3.3445356733
O -3.9355185983 -0.0625742507 0.050990182
C -4.5163882536 0.3115316378 -1.2113681973
C -4.2064593748 -0.687090838 -2.3087123794
H 4.1873071486 -2.4058295345 0.1608351515
H 3.4675117201 -2.0025837615 -1.4065298081
H 5.2075979835 -2.2959496715 -1.286183982
H 4.6290550506 0.1485614659 -1.4600728305
H 5.5032255247 -0.2387768776 0.053257873
H 1.0054527497 3.0411339007 -0.1956298568
H 1.0288081182 3.186911882 1.5814798807
H 3.5468604619 2.9798928666 1.5104087548
H 3.4678240067 2.9432933081 -0.2592107202
H 2.9652713987 4.3981972425 0.6141650245
H 0.1981063822 -2.5756927091 -1.4216853188
H -0.1019270067 -0.8029379871 -1.5042708527
H -0.4740922152 0.4186534064 2.234200801
H -1.6379508204 0.7296104247 3.5444362526
H -1.9770123772 -1.7399453974 3.8047273234
H -0.7437815962 -2.0403482511 2.5717363175
H -0.2929352546 -1.2659877469 4.0934893994
H -5.5855847776 0.3569843106 -0.9997706368
H -4.1499387082 1.3072098458 -1.4820099955
H -4.7835332028 -0.4366549367 -3.1932366298
H -3.1470910578 -0.6508711991 -2.5596737081
H -4.4580352547 -1.6938104584 -1.9850565892
*
