! pbe def2-sv(p) def2/J RI DEFGRID1 loosescf d4 GCP(DFT/SV(P)) printgap
%output
    printlevel normal
end
* xyz 0 1
C 3.0942861085 -0.6023873661 -3.0732298617
C 3.7342222108 -1.2880461436 -1.884337991
O 3.4258271499 -0.6531969276 -0.6316976862
P 2.0005891082 -0.0912285237 -0.1893662445
S 1.6435132405 1.7134186792 -0.8829270009
O 2.1069648366 -0.2031036559 1.3884095221
C 2.5584665872 0.896386741 2.2001597705
C 4.0441224126 1.1271968556 2.0329165647
S 0.7546119374 -1.7621037241 -0.6047705215
C -0.2956304526 -1.9599083488 0.8731638795
S -2.0489747961 -1.6744096142 0.545390971
P -1.8932853519 0.4308940727 0.305145366
S -0.8788775493 1.2983562572 1.7397107728
O -3.3827377783 0.9367304658 0.1069942576
C -4.2490095443 1.2646321679 1.2098452882
C -4.5930406387 0.054483325 2.0528859815
O -1.2532725619 0.6783763863 -1.1127296658
C -1.9293689296 0.6247012984 -2.3932005995
C -2.414862989 -0.7680016408 -2.735888505
H 3.3995528428 -1.1015355212 -3.9871899911
H 2.0081038002 -0.6514020105 -2.9858926125
H 3.3887689133 0.4439495901 -3.1143710334
H 4.8236247331 -1.2448560449 -1.9368452047
H 3.4061476591 -2.329533012 -1.8195741835
H 1.987399314 1.7908057269 1.9284068623
H 2.2970292884 0.5992081868 3.2168588401
H 4.2522305321 1.4270254966 1.006407701
H 4.3631335642 1.9159841021 2.7066578812
H 4.5920325244 0.2144836819 2.2508744369
H 0.046887482 -1.2745861764 1.6479116424
H -0.205166265 -2.9960982186 1.1874157206
H -3.7578331922 2.0308019225 1.8175037836
H -5.1319349369 1.6844210541 0.7255677387
H -3.7078872675 -0.2959130998 2.5812018653
H -5.3492601386 0.3313242478 2.7804159073
H -4.9703045021 -0.7503285299 1.427208387
H -2.7548005729 1.3383481442 -2.3710572127
H -1.1594263507 0.9698382397 -3.0862053428
H -2.790690191 -0.7652254065 -3.7542645986
H -1.5998835319 -1.4846821967 -2.6581926875
H -3.215285256 -1.0679973708 -2.0628340368
*
