! pbe def2-sv(p) def2/J RI DEFGRID1 loosescf d4 GCP(DFT/SV(P)) printgap
%output
    printlevel normal
end
* xyz 0 1
C 5.1143471745 -1.3620066267 -0.209313463
C 4.6107117847 -0.4491712825 -1.307025129
O 3.1790545281 -0.276374024 -1.245360493
P 2.4854477443 0.5299689917 -0.069065537
S 3.4709038437 2.0487444959 0.6728359213
O 2.1258469228 -0.6432312187 0.9454151726
C 1.7534218651 -0.4059225315 2.3175625383
C 2.9300637763 -0.6796402054 3.2334537003
S 0.6598704903 1.0105953561 -1.0293147489
C 0.0265175743 -0.6889001826 -1.219522311
S -1.0309786218 -1.1854389885 0.1501223468
P -2.7434175792 -0.0710115194 -0.4748730179
S -3.0518174999 -0.1298476987 -2.4095777733
O -2.5943015916 1.4380210401 -0.0439076891
C -2.7071750084 1.9813714089 1.2927872322
C -1.4762837226 1.7013590907 2.1306968766
O -3.8841243418 -0.5772130711 0.5046835521
C -4.1754624305 -1.9587002419 0.7940589657
C -4.4706008514 -2.7668875145 -0.4515472527
H 4.9645911848 -0.8889193754 0.7596159924
H 4.5780248777 -2.3070105401 -0.2286585288
H 6.1746687345 -1.5447105832 -0.3531003292
H 4.7793882925 -0.8705304435 -2.299013711
H 5.0806762969 0.5368479738 -1.2365131498
H 1.4137077744 0.6269926448 2.4299355945
H 0.925923845 -1.0923969867 2.506929329
H 2.6094203169 -0.5772700086 4.2649618961
H 3.3055195817 -1.6858731911 3.0713453273
H 3.7267571595 0.0356013144 3.0394459343
H 0.8601563786 -1.382876459 -1.2689691422
H -0.5628530023 -0.7013111559 -2.138339786
H -2.8314887373 3.0509397716 1.1158948581
H -3.6052953728 1.5735417382 1.7594481497
H -1.5524811768 2.2485647938 3.0651112406
H -1.3926982559 0.6388681542 2.3473081346
H -0.5842819525 2.0303569128 1.6000763919
H -3.3245318397 -2.3800418498 1.3358117594
H -5.0460366947 -1.9038138622 1.450004262
H -5.2735999725 -2.3062634602 -1.0220638652
H -3.5866512385 -2.8174062023 -1.0855069336
H -4.7618440796 -3.7730912042 -0.1681180059
*
