! pbe def2-sv(p) def2/J RI DEFGRID1 loosescf d4 GCP(DFT/SV(P)) printgap
%output
    printlevel normal
end
* xyz 0 1
C 3.4316377133 -3.5846454031 0.4649410835
C 3.8292747337 -2.7783749221 -0.7609038198
O 2.6640460806 -2.2657026551 -1.4408438244
C 2.1493596794 -1.1268344357 -1.0381548321
O 2.6021052286 -0.4397286208 -0.1441778826
C 0.8959586539 -0.7743578551 -1.804708316
C 0.4830850077 0.6745267137 -1.5487369541
H 0.9307821962 1.3652932272 -2.2627993524
C 0.7914408835 1.1416961098 -0.1400076262
O 0.1961713397 0.6595208327 0.813718653
O 1.5705077619 2.1809732259 -0.1006924464
C 1.882925544 2.7743908357 1.1793641367
C 3.2190586647 2.2608976965 1.6872678831
S -1.3282244093 0.8694153586 -1.6868333013
P -2.0604535225 0.193418617 0.196214911
S -2.3978275286 1.3184515677 1.7779100149
O -3.4504561123 -0.1009686632 -0.5649159861
C -4.6502183905 -0.4445427744 0.1295087807
O -1.6105963872 -1.3228674044 0.4857000096
C -0.8735980669 -1.7497982861 1.6282396576
H 2.9456370238 -2.9430788141 1.197226513
H 2.7491621771 -4.3821031777 0.1844774083
H 4.32023233 -4.0158797179 0.9137331699
H 4.3216062401 -3.4034922512 -1.5053963331
H 4.4694925701 -1.936879691 -0.4824426313
H 0.1127925592 -1.4571766933 -1.461195865
H 1.0407368581 -0.9567176252 -2.8684288403
H 1.9145977045 3.8465839046 0.981705825
H 1.074311939 2.5409236352 1.8781698815
H 4.0084537853 2.5210897003 0.9883849549
H 3.4288743047 2.7045741004 2.6546532608
H 3.1846528192 1.1788585798 1.7860710348
H -4.636264085 -1.5020327086 0.3916111344
H -5.463825229 -0.2310938594 -0.5593482827
H -4.749111742 0.1602970046 1.0340408468
H 0.1940612001 -1.7268487681 1.4119648052
H -1.2066811483 -2.7639526009 1.8362999258
H -1.078133123 -1.0929479059 2.4752749947
*
