! r2scan-3c def2/J RI DEFGRID2 scfconv6 printgap
%output
    printlevel normal
end
* xyz 0 1
C -0.6919902175 -1.2068776785 7.474e-07
C 0.6919942014 -1.2068781191 1.72519e-05
C 1.3724953827 -6.958e-07 4.6756e-06
C 0.6920012386 1.2068828297 -2.3316e-06
C -0.6919859004 1.2068787529 1.67918e-05
C -1.3724918027 1.3764e-06 4.77087e-05
Cl -3.1096060062 -1.457e-07 -1.57317e-05
Cl 3.1095975853 -2.4759e-06 -1.02167e-05
H -1.2355773346 -2.1371650636 -5.80174e-05
H 1.2355741093 -2.1371626307 -3.0452e-06
H 1.2355945589 2.137183134 3.3316e-06
H -1.2355680422 2.137159728 -4.05798e-05
*
