! r2scan-3c def2/J RI DEFGRID2 scfconv6 printgap
%output
    printlevel normal
end
* xyz 0 1
C 3.9979111341 -1.998027303 -2.0473404063
C 4.5130357707 -1.5915857108 -0.6822618679
O 3.4497504409 -1.2577485724 0.2299601441
P 2.4964525338 -0.0051943326 0.0144148022
S 3.3446301767 1.6234351303 -0.6505446436
O 1.8655677882 0.1892052861 1.4462811989
C 1.3042225788 -0.9034754217 2.2146042549
C 2.2526328237 -1.3031674872 3.3256368768
S 0.9062987163 -0.7884616621 -1.1843074177
C 0.2329021409 0.8160866287 -1.6710702679
S -0.4600699906 1.7463707399 -0.2732556234
P -2.2477726134 0.6240840546 -0.1053936203
S -3.1707225253 0.1883473602 -1.7780713233
O -2.9645112712 1.6233211923 0.8883519631
C -4.3988031604 1.7575758326 0.9777214728
C -4.9978263069 0.7122867308 1.8960283434
O -1.8845630149 -0.6295038493 0.8097907229
C -1.9349731276 -2.0012826208 0.3662105995
C -3.2788524807 -2.6251815383 0.6845492751
H 3.2456370166 -2.7772079429 -1.953876326
H 3.5546344428 -1.1396273869 -2.5496557434
H 4.8253708994 -2.3647476611 -2.6461804522
H 5.1785458729 -0.7271104853 -0.764053936
H 5.029963623 -2.4142486027 -0.1861980476
H 0.3612362474 -0.51637925 2.6078227128
H 1.1090542583 -1.7435061039 1.5422126544
H 2.4753571492 -0.4430044378 3.9508689741
H 1.7884741847 -2.0764498209 3.929666719
H 3.1810749767 -1.6817171486 2.9061256124
H -0.5460245795 0.6288809003 -2.4107748099
H 1.0335799704 1.4295846688 -2.0839140839
H -4.5479276328 2.7666382835 1.365436112
H -4.8204834238 1.6835913677 -0.0302880096
H -6.056321238 0.9155955607 2.025318692
H -4.8764631105 -0.2784968575 1.46485326
H -4.5045449102 0.7401012087 2.8638277411
H -1.7359557538 -2.0435116954 -0.7081355322
H -1.1282314529 -2.4981415861 0.906342789
H -3.5057196694 -2.5152806778 1.7414269327
H -4.0596144593 -2.1500005661 0.0938700109
H -3.2457469642 -3.6802956082 0.4326665867
*
