! pbe def2-sv(p) def2/J RI DEFGRID1 loosescf d4 GCP(DFT/SV(P)) printgap
%output
    printlevel normal
end
* xyz 0 1
C 2.5690643397 1.9945826833 -1.7014942511
C 3.323449146 1.9711187728 -0.3869578023
O 3.37112967 0.6519214305 0.1829039265
P 2.12142301 0.008384987 0.9268810421
S 1.1454099191 1.2367264468 2.0893008508
O 2.7426547124 -1.1907763082 1.7410844101
C 3.6371954545 -2.182582554 1.1754684538
C 5.0840093564 -1.7857982042 1.3843228578
S 1.0805049756 -0.9450649036 -0.6836743731
C -0.1265623142 -1.8782118865 0.2928543197
S -1.4596763457 -0.8682798359 0.9935179587
P -2.120813292 -0.0138876532 -0.8503830301
S -1.9454263048 -1.1456531044 -2.433777342
O -1.3117942436 1.3260597031 -1.0532932738
C -1.3853170658 2.4533984509 -0.1471746466
C -2.3206530987 3.5101620515 -0.6949781382
O -3.563335101 0.5331718559 -0.4719785567
C -4.6030309352 -0.2304460016 0.1679289511
C -4.9221313557 -1.5181960485 -0.561637303
H 1.5169079742 1.7585828064 -1.5458331566
H 2.6448883816 2.9840250946 -2.1410933484
H 2.9853732087 1.2627169171 -2.3891484944
H 2.8633840826 2.6465455677 0.3421126939
H 4.3720377394 2.2379557743 -0.5266980043
H 3.3978357521 -3.101129557 1.7147733374
H 3.4088111942 -2.3028855574 0.1129456611
H 5.2735370136 -1.6127584487 2.4401748162
H 5.7249030167 -2.5878969122 1.031611343
H 5.3103176874 -0.8772238914 0.833294906
H 0.3625692799 -2.364289468 1.1344207054
H -0.5556260164 -2.6055791359 -0.3956472292
H -1.7026494036 2.1046112845 0.8394852728
H -0.3612422863 2.8255527367 -0.0729518818
H -2.3123219661 4.3677300691 -0.0297704544
H -1.993642339 3.8167161587 -1.6846740634
H -3.3313479802 3.1169772461 -0.7658065902
H -4.2923842349 -0.4342991594 1.1966759578
H -5.4569142166 0.4494808865 0.1677301112
H -4.0662753423 -2.1907330861 -0.5297139857
H -5.7701148414 -2.0004051295 -0.0861169545
H -5.1585981457 -1.3152805459 -1.6034310542
*
