! pbe def2-sv(p) def2/J RI DEFGRID1 loosescf d4 GCP(DFT/SV(P)) printgap
%output
    printlevel normal
end
* xyz 0 1
C 3.8004996418 1.7017054964 -0.793114855
C 2.387795817 1.7533321007 -0.2493109041
O 1.7375361569 0.4804359742 -0.3762272253
P 2.0934544683 -0.7654153761 0.5588305602
S 2.870600581 -0.2878316383 2.2862332328
O 3.0455604915 -1.736129293 -0.2510992282
C 2.6569046665 -2.5733824231 -1.3657619198
C 2.2807099493 -1.7714638593 -2.5937695687
S 0.243759991 -1.7787747899 0.5874875038
C -0.4866387718 -0.8230694632 1.9384845607
S -0.7725888914 0.9249584698 1.5348485952
P -1.9333314647 0.6782065329 -0.2332201427
S -1.0634030631 0.4217693369 -1.9731398287
O -2.8471709872 1.9790618242 -0.1910110525
C -2.3758476929 3.2633571085 -0.6407879807
C -3.5848987297 4.1424578276 -0.8894291651
O -2.9536909118 -0.4316851089 0.2256587375
C -3.4820206856 -1.4584840613 -0.6467012824
C -3.2467872627 -2.8187830669 -0.0222241865
H 3.7901935781 1.4104121367 -1.8400904581
H 4.2626379461 2.6786918159 -0.6940406401
H 4.3814160894 0.972877311 -0.2274502886
H 1.7549984294 2.4339094251 -0.8219611791
H 2.3860028315 2.044281683 0.8066772815
H 3.5445922012 -3.1838257106 -1.5400645269
H 1.8271486389 -3.2097172425 -1.0457780117
H 1.3944441654 -1.1675782999 -2.405676927
H 3.0978457663 -1.1148483401 -2.8807889823
H 2.0690326098 -2.4543622473 -3.4105488571
H 0.1942984106 -0.822201927 2.7906951706
H -1.4332823583 -1.297378779 2.1852927936
H -1.7302013054 3.6821282334 0.1366973314
H -1.7905577126 3.1191471624 -1.5558429778
H -4.2105869288 3.7053915873 -1.6623283912
H -4.1663792755 4.2369477609 0.0229576116
H -3.2519922315 5.1245326247 -1.2087234143
H -4.5471768278 -1.2459275267 -0.7537521533
H -2.9929511001 -1.3799617753 -1.6234677282
H -2.1797055175 -3.0094747034 0.0768995943
H -3.7097148402 -2.8660715147 0.9593975283
H -3.6851276357 -3.5790603996 -0.6602921977
*
