! r2scan-3c def2/J RI DEFGRID2 scfconv6 printgap
%output
    printlevel normal
end
* xyz 0 1
C 4.2641979993 -3.7605198033 -1.0052918094
C 2.7514198742 -3.7292144066 -0.8562309026
O 2.3147813531 -2.4832861784 -0.2779900624
C 2.1299381231 -1.4529830152 -1.0775744241
O 2.2542676482 -1.4795110012 -2.2816312411
C 1.726989889 -0.2148018992 -0.2981838784
C 0.6633426691 0.5583632323 -1.0689588953
H 1.0062169691 0.700643159 -2.1000054909
C 0.3498106018 1.913351983 -0.4641383471
O -0.7881359365 2.2872535715 -0.2605718871
O 1.4302752381 2.6060474828 -0.2356704281
C 1.3048561979 3.8971369854 0.401361326
C 1.4688959294 3.75517002 1.9052792942
S -0.890516699 -0.3787390909 -1.230793272
P -1.8329314282 0.044735244 0.6363919777
S -0.7389776155 0.4634274623 2.2039532919
O -3.0634554791 1.0129769819 0.4389273858
C -4.0101354843 0.8657736215 -0.635607295
O -2.6375120202 -1.3377353881 0.825477536
C -1.9582560281 -2.5540374797 1.1430806935
H 4.586283965 -3.0005813184 -1.7135129963
H 4.7387240974 -3.5755652338 -0.0455293382
H 4.5677801035 -4.7350727889 -1.3730129955
H 2.4052771333 -4.4892654027 -0.1559623404
H 2.263709541 -3.8511861434 -1.8275460908
H 2.6081919019 0.421901555 -0.1893542307
H 1.3788580987 -0.5021862526 0.6951883781
H 2.1042211097 4.49657966 -0.0345970963
H 0.3273525294 4.3172221754 0.1512268409
H 0.701265561 3.0958782245 2.3072479217
H 2.4426997866 3.3365981681 2.1413088538
H 1.3744014553 4.7306615473 2.3702123651
H -3.5044021692 0.9918992935 -1.592812508
H -4.7369852119 1.6586411104 -0.4796788956
H -4.4831203272 -0.1134984253 -0.5850148975
H -2.7365439839 -3.2649610714 1.4079715547
H -1.2824407955 -2.3967441061 1.9856923364
H -1.3969493952 -2.9040313589 0.2763881891
*
