! pbe def2-sv(p) def2/J RI DEFGRID1 loosescf d4 GCP(DFT/SV(P)) printgap
%output
    printlevel normal
end
* xyz 0 1
C 4.9767080005 0.3128094524 -0.8484955586
C 4.5762879345 -1.1315797668 -1.1003958254
O 3.1451732028 -1.2509468195 -1.2185638651
C 2.4399459853 -1.5350304433 -0.1409629403
O 2.9057810581 -1.7447158282 0.955115657
C 0.9556224313 -1.60478834 -0.4616475165
C 0.4731128212 -0.2808148861 -1.0584103029
H 1.0741214048 -0.0343478108 -1.9375226808
C 0.5728142408 0.838959123 -0.0441062329
O -0.4004329864 1.4547616311 0.3477918351
O 1.7961020409 1.0324455981 0.3572902485
C 2.0426709854 2.0333669713 1.3712452989
C 2.345342689 3.3784498608 0.7336782196
S -1.2480277252 -0.367210721 -1.6527340812
P -2.3873979129 -0.0516145119 0.111272723
S -1.7557566498 -0.7107557682 1.8596129205
O -3.0995974637 1.363959174 0.0424421599
C -2.9163160752 2.4374196261 0.9664215734
O -3.7073046369 -0.8393379206 -0.3522673173
C -3.7237519062 -2.2635935958 -0.4667800904
H 6.0587652215 0.3840771884 -0.8122867925
H 4.6012973518 0.9495664975 -1.6445671617
H 4.5657696983 0.6503079095 0.099235627
H 4.9141013184 -1.7772183908 -0.2850538769
H 4.9628164932 -1.490626313 -2.0547117044
H 0.4124153294 -1.8418766307 0.4554436193
H 0.7952564443 -2.3952575284 -1.1957543578
H 1.1669522426 2.089477266 2.0230996894
H 2.8969071289 1.6484490903 1.9294255076
H 3.194940698 3.2940966548 0.061992644
H 1.4827786633 3.7326140201 0.1742268385
H 2.5767758656 4.0954801964 1.5141924484
H -2.2434930818 3.1734432056 0.530389812
H -2.499546946 2.0677895077 1.9047948341
H -3.9033991696 2.8637158718 1.1328532022
H -3.2885826263 -2.7173315379 0.4263087456
H -3.1702899312 -2.5769454921 -1.3523530772
H -4.7718599913 -2.5378323061 -0.5559283429
*
