! pbe def2-sv(p) def2/J RI DEFGRID1 loosescf d4 GCP(DFT/SV(P)) printgap
%output
    printlevel normal
end
* xyz 0 1
C 4.231090559 -3.1989350895 -2.0321712845
C 2.7257892707 -3.1787453511 -1.8186362883
O 2.2904572469 -1.8866198373 -1.3555434392
C 2.3003856015 -1.6466171734 -0.0594617287
O 2.646548714 -2.4425640442 0.7849569151
C 1.8323804365 -0.2421696264 0.2720668259
C 0.9292813874 0.3559932147 -0.8025145856
H 1.4589613129 0.3976851355 -1.7576188476
C 0.4638608485 1.7461194344 -0.4182000478
O -0.7138959106 2.0295321052 -0.3134969968
O 1.4583492052 2.5649021343 -0.2312214989
C 1.1691449055 3.9021321404 0.2363740736
C 1.0958636165 3.9269902875 1.7540003061
S -0.5435458242 -0.6609059669 -1.1299632406
P -1.8117015234 -0.1163893657 0.5048417768
S -1.1240869779 0.5712939332 2.2074005036
O -3.1280104983 0.5587688152 -0.0991924876
C -3.4514570558 1.945685343 -0.1860245612
O -2.4198157416 -1.5548310365 0.8366368724
C -3.100775516 -2.37124305 -0.1288196973
H 4.7445563708 -3.054076051 -1.0843718201
H 4.5211494726 -4.1590748712 -2.4457298422
H 4.5228904003 -2.4096591507 -2.7192755042
H 2.4282503461 -3.9315818451 -1.0834368261
H 2.1865128404 -3.3262231062 -2.7543411314
H 2.7175544373 0.3892982665 0.3842752318
H 1.3252313821 -0.2787214731 1.2403241278
H 1.9986552601 4.5031132442 -0.1353484266
H 0.2254656695 4.2308475575 -0.2055930616
H 2.0415922742 3.6104347399 2.1841532624
H 0.8710458779 4.9346897961 2.0866131159
H 0.3141635549 3.2556936303 2.106942571
H -4.5386250267 1.9886352141 -0.1878188212
H -3.0438244477 2.3618638214 -1.1050719945
H -3.0480099303 2.4832173241 0.6715859622
H -3.3096869622 -3.3058771276 0.3856367028
H -2.4580590501 -2.5438829624 -0.9927635626
H -4.0238542505 -1.885764484 -0.4402120647
*
