! pbe def2-sv(p) def2/J RI DEFGRID1 loosescf d4 GCP(DFT/SV(P)) printgap
%output
    printlevel normal
end
* xyz 0 1
C 0.6014540273 1.7000465321 0.0459039444
C 1.4017623032 0.418852518 -0.2370915433
H 1.6044235849 0.3614533632 -1.3138020657
C 0.5548758188 -0.7979316339 0.1822882163
H 0.3635179746 -0.7622170536 1.2609169142
C -0.8007903509 -0.7452446641 -0.5492512331
H -0.6298745016 -0.8712958153 -1.6247776189
C -1.4672864747 0.6333340263 -0.3063544211
H -2.3438352229 0.7509349428 -0.9647304902
O -0.6292633171 1.689346207 -0.6637507993
O -1.8593613746 0.7439824472 1.0323467373
O -1.6287320167 -1.7561553424 -0.0241749085
O 1.2219012036 -2.015257192 -0.018854318
O 2.6643411769 0.4314917819 0.3727286232
H 1.1380490214 2.5776184011 -0.3134552576
H 0.4078024888 1.7978037105 1.1206903507
H -2.1258980957 -0.141754279 1.3362348227
H -2.2803818596 -2.0408574333 -0.6793820085
H 1.5111748184 -2.088652348 -0.9396857504
H 2.5676584877 0.4000488143 1.3354369023
*
