! pbe def2-sv(p) def2/J RI DEFGRID1 loosescf d4 GCP(DFT/SV(P)) printgap
%output
    printlevel normal
end
* xyz 0 1
C 5.3469084927 1.4022757145 -1.858045931
C 4.0075987773 0.6929651993 -1.8758685835
O 3.7886293116 0.1189839266 -0.5722579093
P 2.3352279432 -0.106753594 0.0021204398
S 1.1124221091 1.4096956225 -0.2779071636
O 2.8118888216 -0.4388602391 1.4710234412
C 2.0067421935 -1.064070316 2.4867410109
C 1.1161981777 -0.0608523965 3.1933470883
S 1.7187035808 -1.9576918952 -0.8514118045
C -0.042802564 -1.6490900041 -1.1161817392
S -0.9835556589 -1.5481918763 0.4484302343
P -2.1676324155 0.1552895774 0.0658408085
S -2.1523582803 0.8466504842 -1.7754202648
O -1.6863802339 1.0512197871 1.2790615175
C -2.3701499546 2.233656878 1.7439719007
C -2.1814769578 3.4044185522 0.8003649944
O -3.6329363383 -0.2248396513 0.5684582627
C -4.6210607813 -0.7994409892 -0.3011392529
C -4.2495206539 -2.2031809618 -0.7337241797
H 5.3327977056 2.2073499666 -1.1286395774
H 6.1316761826 0.70048541 -1.5917422277
H 5.5464983229 1.812810354 -2.8424260663
H 3.998057119 -0.1203299183 -2.6062967467
H 3.1913907597 1.3895721428 -2.1007346917
H 1.4117580487 -1.8670175283 2.0385037769
H 2.7402446768 -1.4927513563 3.1722433227
H 0.3899580288 0.3588410844 2.4994728359
H 0.584194074 -0.5592377236 3.997303464
H 1.7146781175 0.749635396 3.6007189433
H -0.400590422 -2.5015747058 -1.6878652586
H -0.1881561766 -0.7141449325 -1.6645070667
H -3.4283746975 1.9968252847 1.8784266224
H -1.9071390838 2.4294865415 2.7129693896
H -2.6913868638 3.2215675226 -0.1437267235
H -2.584069689 4.3044603866 1.2537428046
H -1.1223602361 3.5451765247 0.5929360483
H -5.5341951365 -0.7885003085 0.2954240964
H -4.7348743816 -0.1474956445 -1.1732305327
H -4.0191064045 -2.8178876628 0.1327201095
H -5.0781803086 -2.6422467989 -1.2797494524
H -3.3774115537 -2.1681347151 -1.3856293263
*
