! pbe def2-sv(p) def2/J RI DEFGRID1 loosescf d4 GCP(DFT/SV(P)) printgap
%output
    printlevel normal
end
* xyz 0 1
C 5.6892071868 0.473616676 -1.2439251197
C 4.2211127984 0.1557580421 -1.4421493379
O 3.6004345444 0.1094440981 -0.1406658851
P 2.020757345 0.1192894904 0.0170817031
S 1.0945409646 1.6088561011 -0.8512430587
O 1.8238741282 0.1231476792 1.5776523816
C 2.4323694498 -0.8527092719 2.4629214322
C 3.7076541484 -0.3025693004 3.0662866684
S 1.4930223536 -1.8302599976 -0.6650170459
C -0.2663221858 -1.5455983415 -0.9214728115
S -1.1136226262 -1.0885496093 0.6347764842
P -2.5852244034 0.2541676286 -0.1154760684
S -2.3839231705 0.8156289463 -1.9870836213
O -2.7074520328 1.3920348329 0.9756187574
C -1.8147750935 2.5119428123 1.1079145884
C -0.8778470505 2.3157325765 2.2835230113
O -3.9706644812 -0.4202130524 0.2482059481
C -4.7006939385 -1.2444647694 -0.6759474274
C -3.9777370158 -2.5412453686 -0.9820705937
H 5.7998881708 1.4341013102 -0.748418059
H 6.1574033222 -0.2948258408 -0.6358135535
H 6.178058977 0.5124916748 -2.2117601082
H 4.0826571606 -0.8171202683 -1.9213581871
H 3.7200921459 0.9242489847 -2.039979452
H 1.6731266987 -1.0375815573 3.2249516491
H 2.6212818888 -1.7711515898 1.9006089435
H 4.4416242391 -0.1147922551 2.2874366183
H 3.5028268252 0.6288186195 3.5867838338
H 4.1070356178 -1.026450664 3.7696915446
H -0.6661310333 -2.4873450541 -1.2897696218
H -0.4145894274 -0.7370510424 -1.6433595068
H -1.258097693 2.653534768 0.1753956194
H -2.4691912915 3.3716234763 1.2671459932
H -0.3115401391 3.2284753871 2.438898641
H -1.4498345717 2.0838315569 3.1773125527
H -0.1809706859 1.5037942375 2.0864938766
H -5.6502631309 -1.4216319905 -0.1690665262
H -4.8693848808 -0.6730754614 -1.5941853822
H -3.0824776142 -2.3313535785 -1.5664254825
H -3.6957360521 -3.0431860634 -0.0597361551
H -4.6295513311 -3.1882436517 -1.5604393874
*
