! pbe def2-sv(p) def2/J RI DEFGRID1 loosescf d4 GCP(DFT/SV(P)) printgap
%output
    printlevel normal
end
* xyz 0 1
C 3.2704803931 2.3165432642 -0.0650402696
C 2.8464966741 1.8548670753 1.3137397372
O 1.7761817243 0.8779257697 1.2646420774
P 1.892207477 -0.6206277941 0.78745368
S 0.4156935487 -1.70099356 1.4922893186
O 3.3486762377 -1.0158579357 1.2843265257
C 3.774776771 -2.3790329456 1.4544557028
C 3.8260504492 -3.1382854897 0.1447075983
S 2.0677939417 -0.6090983599 -1.3408932723
C 0.3137847476 -0.5414853582 -1.7318394233
S -0.4630374615 0.9773332973 -1.0846661997
P -2.421789888 0.2294890998 -0.7081331586
S -2.6288645887 -1.7169311718 -0.7443212432
O -3.3415747776 0.9011506998 -1.7952551695
C -3.2136979713 2.2414664393 -2.3326914073
C -3.1632429713 3.3066806051 -1.2596511895
O -2.9243032901 0.9357289385 0.624621521
C -2.5367679349 0.526418374 1.9461990718
C -1.4846506613 1.4620227987 2.5086833633
H 3.7914463279 1.5218303442 -0.5935873606
H 2.3990659115 2.6122033914 -0.6450325457
H 3.936211943 3.1676053092 0.039050721
H 2.405790831 2.6706474186 1.8890080914
H 3.6841803512 1.4210091607 1.8618543866
H 4.7645721921 -2.2853045331 1.903828316
H 3.092197286 -2.8686286355 2.1558946493
H 4.2816516168 -4.1090485982 0.3120449499
H 2.8183959197 -3.2866856186 -0.2409974706
H 4.4062329446 -2.5877953786 -0.5915428095
H -0.2054833672 -1.3995841499 -1.2942887061
H 0.2417852982 -0.551504784 -2.8166747882
H -2.3140450781 2.2728389992 -2.9525022294
H -4.1005759394 2.3398240793 -2.9602369081
H -2.2530206942 3.2023071058 -0.6713527001
H -3.1689390016 4.2846689906 -1.7310001976
H -4.0219422238 3.2181265826 -0.5993865531
H -3.4562681219 0.5670203319 2.5335202655
H -2.1754948636 -0.5073397981 1.9183661431
H -1.2823159115 1.1852194607 3.5384808421
H -0.5604719613 1.3817709425 1.9403585664
H -1.8396289952 2.487869049 2.4706808107
*
