! pbe def2-sv(p) def2/J RI DEFGRID1 loosescf d4 GCP(DFT/SV(P)) printgap
%output
    printlevel normal
end
* xyz 0 1
C 1.8419592614 -4.3427201954 -1.0828884998
C 2.9959595174 -3.4924393469 -0.5760100547
O 2.5192874147 -2.2225666319 -0.0895425784
C 2.4556723661 -1.2129659743 -0.93271261
O 2.7847843769 -1.2593527005 -2.0965562125
C 1.9159404492 0.0372761515 -0.2616270219
C 0.796904958 0.6223554695 -1.1213359972
H 1.1710355938 0.7799630453 -2.1376044758
C 0.275490309 1.9290303799 -0.5612726625
O -0.8929002081 2.0868570806 -0.2610494142
O 1.2099956393 2.8267467088 -0.452647981
C 0.8818235966 4.0932514454 0.1642018755
C 1.051165276 4.0034843832 1.6717065046
S -0.6071683674 -0.5285936371 -1.3032776222
P -1.6946557696 -0.1799537522 0.4951794897
S -0.7725650521 0.3619181779 2.1485819816
O -3.089332476 0.4899020027 0.1530539959
C -3.5218850455 1.7838312574 0.5771990932
O -2.3296912333 -1.6457813545 0.6514074361
C -1.5115746787 -2.7676289324 0.9867958697
H 1.3349162236 -3.8338335386 -1.9002108193
H 2.2268997488 -5.2910259439 -1.4428945393
H 1.1302690634 -4.5270200689 -0.282531202
H 3.7199251084 -3.3076118294 -1.3744893158
H 3.4830528215 -3.9536552844 0.2831949343
H 2.7209074875 0.7718378445 -0.1931973707
H 1.5637195778 -0.2092170084 0.7409960302
H 1.5849570885 4.7987300497 -0.2777232403
H -0.1453071054 4.3562129819 -0.0999579889
H 2.0776208308 3.7526582142 1.922523224
H 0.7964048512 4.9583170323 2.1189762425
H 0.3967337526 3.2357940283 2.0815141558
H -3.3711660481 2.4958172253 -0.2320225146
H -2.9632963142 2.104153194 1.4580993826
H -4.5788215882 1.6826827475 0.8143946898
H -0.9026424705 -2.5407765217 1.8647461189
H -0.8671462377 -3.0272285831 0.1459478198
H -2.2012874499 -3.5794026265 1.2030534814
*
