! pbe def2-sv(p) def2/J RI DEFGRID1 loosescf d4 GCP(DFT/SV(P)) printgap
%output
    printlevel normal
end
* xyz 0 1
C 5.1731842754 -0.7037908932 -2.4699244843
C 3.7605109996 -1.041621094 -2.0391959008
O 3.468223572 -0.2896398194 -0.8427619045
P 1.9722257109 -0.0613811147 -0.3602090788
S 0.8009821256 0.7086375448 -1.7244560507
O 2.1287432454 0.8778604955 0.8886300869
C 2.9654765027 0.5865747678 2.0366201284
C 4.3230883706 1.2407312695 1.8895557001
S 1.4952443134 -2.0006637032 0.3737120032
C -0.1407520845 -1.7067371007 1.0997235635
S -1.4646704148 -1.4558113042 -0.1168484629
P -2.0334946155 0.5565499805 0.3205990952
S -0.9519174594 1.4253982764 1.7032834888
O -3.5730774017 0.4026459383 0.7081135382
C -3.9728874649 -0.2685889281 1.9188075868
C -5.4519177458 -0.0125215326 2.1255202082
O -2.1391666046 1.4120533591 -0.9888129745
C -3.1285623749 1.2507519983 -2.0359063067
C -3.0287837032 -0.0956549654 -2.7192230999
H 5.8752953459 -0.9659680105 -1.6838594818
H 5.4134253803 -1.2637266428 -3.3676120474
H 5.2556263191 0.3594396047 -2.6778985727
H 3.6557797244 -2.1040208722 -1.804417121
H 3.0293169764 -0.7688827999 -2.8073512575
H 2.4082545961 0.9979955516 2.8810718301
H 3.0586376142 -0.4980612527 2.1418232099
H 4.206112368 2.3111100806 1.7431803094
H 4.9004573319 1.0625291695 2.7913117042
H 4.8498926495 0.8249518868 1.034812133
H -0.1018548362 -0.8283242308 1.751141718
H -0.3699364484 -2.6102563282 1.6584720147
H -3.7647286434 -1.3361984524 1.802368134
H -3.3760459562 0.1268942454 2.747366499
H -5.7748270496 -0.5110178383 3.0334110395
H -5.6362132458 1.054208265 2.2170179632
H -6.0179645074 -0.3973545168 1.2823554294
H -4.1161829161 1.4033710199 -1.5965929518
H -2.8897083193 2.0653003234 -2.7214166527
H -2.0074650172 -0.266158616 -3.0537965498
H -3.313093706 -0.8937064139 -2.0347189724
H -3.6942353586 -0.1101566733 -3.5765909654
*
