! pbe def2-sv(p) def2/J RI DEFGRID1 loosescf d4 GCP(DFT/SV(P)) printgap
%output
    printlevel normal
end
* xyz 0 1
C 0.6572286347 1.8118125471 3.1193038363
C 1.0418918084 1.983578931 1.6620893019
O 2.1718401551 1.1574383611 1.3296099278
P 2.0926299958 -0.3360726535 0.8186852332
S 1.1326317212 -1.6698055017 1.8981445649
O 3.6628555881 -0.5339346075 0.7774648296
C 4.2767925006 -1.8325204253 0.7822619432
C 4.0140001022 -2.5957841453 -0.5011446355
S 1.4945536963 -0.167954396 -1.2214486713
C 0.3421797344 -1.572396281 -1.3441256904
S -1.2516011774 -1.1667433465 -2.1184142615
P -2.0107764978 0.3213520555 -0.8037030664
S -3.9317898358 0.6147624537 -1.0335635395
O -1.056123944 1.578074895 -0.9936455526
C -1.0441766397 2.3018979996 -2.2406353363
C -1.9278581611 3.5302367402 -2.1546359712
O -1.4954935346 -0.07754805 0.6421818634
C -2.3438219143 -0.8054980942 1.5560860621
C -3.040230313 0.1487545609 2.5039672216
H -0.1519544466 2.4948753205 3.3586592397
H 0.3304587565 0.7907227143 3.3052765678
H 1.5098825394 2.0260800231 3.7581757099
H 1.3856322096 3.0006217224 1.4621025767
H 0.2017330809 1.7490819128 1.0043157375
H 5.3384166319 -1.6178364137 0.9116601686
H 3.9051776012 -2.3929026408 1.6464309096
H 4.6152445716 -3.4993570545 -0.5109080859
H 2.9621898957 -2.8732920025 -0.5595587408
H 4.2692196736 -1.9835308469 -1.3624905194
H 0.1763320449 -1.9713678301 -0.3394678314
H 0.7733211832 -2.3225888623 -2.0027998769
H 0.0032188768 2.5679849841 -2.3998208843
H -1.3737414738 1.6376673676 -3.0472016639
H -1.8654279141 4.081075013 -3.0875527363
H -2.9613253602 3.2361438064 -1.9836974841
H -1.6051043466 4.1674501057 -1.3363341698
H -3.0753979 -1.3862370902 0.986260256
H -1.6697638216 -1.4820341577 2.0868563643
H -3.6338314039 -0.4230626806 3.2098774221
H -2.3088651345 0.7419616937 3.045116092
H -3.694595421 0.8146059894 1.9449358242
*
