! pbe def2-sv(p) def2/J RI DEFGRID1 loosescf d4 GCP(DFT/SV(P)) printgap
%output
    printlevel normal
end
* xyz 0 1
C 2.7052252932 -0.8718538219 -2.7694102853
C 1.6386387346 0.0190779938 -2.1708263412
O 1.1000308342 -0.5362142496 -0.955223119
P 1.9712359963 -0.6096417093 0.3771302739
S 3.3211156423 0.7936462804 0.6305013489
O 2.5493876573 -2.0856622191 0.2782768404
C 3.6547599935 -2.5386436141 1.0807256767
C 3.2839775153 -2.6568134042 2.5448881814
S 0.4355442976 -0.8042061567 1.8042403235
C 0.0004370956 0.9517358421 2.0031173361
S -0.0892166198 1.881457114 0.4453704339
P -1.8145114525 1.0303345565 -0.4314393117
S -1.9061952662 1.2986650602 -2.3695744226
O -2.8713885342 1.750046656 0.5113667305
C -4.2447986111 1.3257495586 0.652257225
C -5.0550214217 1.5798912111 -0.602205872
O -1.9528582618 -0.4817275896 0.0386432831
C -1.8011401385 -1.6310347189 -0.8093835639
C -3.0696644755 -2.4577153237 -0.7406246526
H 3.5710455507 -0.9054532889 -2.1089915395
H 2.3209271191 -1.879607774 -2.9021820207
H 3.0086343621 -0.4688472368 -3.7304861042
H 0.7721742191 0.1203174233 -2.8280277169
H 2.0384187623 1.0147040368 -1.9482007876
H 3.9115908332 -3.5067795408 0.6489448485
H 4.4858853189 -1.8382031222 0.9504745476
H 3.0926080587 -1.6685006687 2.960543119
H 2.3902995228 -3.2645778048 2.6610928887
H 4.1055601671 -3.1135639881 3.0873018726
H 0.7745825266 1.4490745948 2.5847769158
H -0.9588123329 0.9813135437 2.5136678823
H -4.2548054356 0.2660060682 0.9180966314
H -4.6107625667 1.9226611826 1.4894019089
H -4.9998442193 2.6293821715 -0.8806419917
H -4.6693201229 0.9871928802 -1.4302448807
H -6.0909734233 1.3097090227 -0.4228525143
H -1.6024377024 -1.2933551535 -1.8319066354
H -0.9387552598 -2.187802285 -0.4350804088
H -2.9369211375 -3.358305926 -1.3309656904
H -3.2797983128 -2.731559472 0.2894425704
H -3.9084579629 -1.8922690455 -1.1396726906
*
