! pbe def2-sv(p) def2/J RI DEFGRID1 loosescf d4 GCP(DFT/SV(P)) printgap
%output
    printlevel normal
end
* xyz 0 1
C 2.5656327433 -0.8561911623 -2.91798722
C 2.7983882756 0.4742800201 -2.2308217004
O 3.214039592 0.2809817578 -0.8655303127
P 2.2847135205 0.3310467304 0.4183749148
S 1.2922073518 1.9824541727 0.7641794873
O 3.3467233809 0.1201913142 1.5637554848
C 4.2476718426 -1.0175369354 1.625385383
C 3.855441186 -1.9294050991 2.7707888672
S 1.1509029724 -1.4687688802 0.3621102958
C -0.1455944026 -0.9743430437 1.5433760056
S -1.8160856039 -1.3201806662 0.9494131863
P -2.033847613 0.26677029 -0.4627978493
S -0.7365120251 0.4236995346 -1.9159783336
O -2.0365902139 1.6009129045 0.3734477725
C -2.9319140534 1.8734107176 1.4779917681
C -4.108180169 2.708904962 1.0161401887
O -3.5577918747 0.1095816637 -0.881640361
C -4.177689988 -1.1194594488 -1.3086778274
C -3.4008507872 -1.8255862512 -2.3992041487
H 2.360294658 -0.6755736458 -3.9678414562
H 3.4446472005 -1.4871717542 -2.8223027763
H 1.7081858496 -1.3628384399 -2.481415425
H 1.895935853 1.0912544724 -2.2555409199
H 3.6251155492 1.0200538626 -2.6895216839
H 4.2269331576 -1.5446645654 0.669645799
H 5.2354728769 -0.5821723576 1.7824121555
H 3.7862586216 -1.3578896809 3.6921362021
H 2.8963539531 -2.4008064032 2.5715709371
H 4.6113431348 -2.7000849925 2.8830719973
H -0.0367781772 0.0969138835 1.7352691941
H -0.0335975725 -1.5569904672 2.4539751521
H -3.2649587642 0.9256889974 1.9110929743
H -2.315910211 2.4161963387 2.1982655909
H -4.7312380659 2.948555195 1.8720981017
H -3.75231094 3.6292828129 0.5610568314
H -4.6948866751 2.1608587305 0.2836121582
H -4.2861984478 -1.7640198085 -0.432092183
H -5.1605667152 -0.801770075 -1.661235107
H -2.4294615456 -2.1441768024 -2.0227429605
H -3.955539443 -2.6979200327 -2.7293296089
H -3.2388268641 -1.1591301432 -3.243301678
*
