! pbe def2-sv(p) def2/J RI DEFGRID1 loosescf d4 GCP(DFT/SV(P)) printgap
%output
    printlevel normal
end
* xyz 0 1
C 3.4921099576 -3.0032935943 0.5519005346
C 2.8890259689 -1.6840114378 1.0061098487
O 2.662854317 -0.8045356208 -0.1119899408
C 1.5864716658 -0.9766801864 -0.8492069013
O 0.7310482192 -1.81526829 -0.6472732086
C 1.516324038 0.0253652661 -1.9836574673
C 0.2857453722 0.921563913 -1.818050794
H 0.2129448922 1.603052318 -2.6702598004
C 0.3329310038 1.7384822286 -0.5430621479
O -0.634690954 1.8605886973 0.1882752282
O 1.4994571911 2.2658925662 -0.3221463953
C 1.6974751213 3.0009312574 0.9070285023
C 3.1866937052 3.2260634546 1.0700764284
S -1.286537518 -0.0117974045 -1.8313342716
P -1.7538643923 -0.3559147253 0.2166496676
S -0.5656768518 -0.5307498707 1.7816702238
O -3.0463936017 0.538735041 0.4632324791
C -3.1608733095 1.5835599307 1.4278680029
O -2.6101715369 -1.6960306363 0.0043995477
C -2.0288695893 -2.9799313514 -0.2172849772
H 2.7888370987 -3.5383919148 -0.0821732663
H 4.4085062221 -2.8240273741 -0.0037365438
H 3.7122938469 -3.611798085 1.4226162103
H 3.5758524433 -1.1322337459 1.6475991072
H 1.939390114 -1.8402978541 1.5266339394
H 1.4200338067 -0.5222026285 -2.9213034526
H 2.4186769578 0.6351296563 -1.9825354366
H 1.1470591405 3.9428832242 0.8320578634
H 1.2758048764 2.4129607126 1.7284664498
H 3.7039406888 2.272102833 1.1115594632
H 3.5706243011 3.8004405838 0.2328461845
H 3.3656913217 3.7696511434 1.9914902221
H -4.1787287339 1.5317145378 1.8077900744
H -2.9725907977 2.5409311429 0.9447664469
H -2.4433365898 1.4348322169 2.2371768985
H -1.2588772631 -3.1784914827 0.5296819212
H -1.5838448219 -3.0284361719 -1.2108547947
H -2.8473950929 -3.6891722985 -0.1234321456
*
