! r2scan-3c def2/J RI DEFGRID2 scfconv6 printgap
%output
    printlevel normal
end
%cpcm
    smd true
    smdsolvent "water"
end
* xyz 0 1
C 0.6277633366 1.6922472086 -0.0094903856
C 1.4055286995 0.3965397217 -0.2519081501
H 1.6125065031 0.2891571974 -1.3287199027
C 0.5429271633 -0.7940620687 0.1872558139
H 0.3729124845 -0.7251352843 1.2720708289
C -0.8117814734 -0.7396482448 -0.531783736
H -0.6403696615 -0.8747189963 -1.6066272786
C -1.4644992477 0.642374986 -0.2949819965
H -2.3508433199 0.7617925269 -0.9402707887
O -0.6183053068 1.68031114 -0.6884559827
O -1.8321366568 0.7827782513 1.0480000154
O -1.6208878296 -1.7613131215 0.003361312
O 1.2455123166 -1.9745339813 -0.1206327189
O 2.6056131637 0.4595221663 0.4729507506
H 1.1737979301 2.545857829 -0.4078272391
H 0.4755946555 1.8254234373 1.0672504413
H -2.0975354033 -0.0917486198 1.3819416525
H -2.3624830333 -1.9510692302 -0.5883188617
H 0.6965895079 -2.7352467698 0.1200633421
H 3.0410286903 -0.4048740713 0.41298226
*
