! pbe def2-sv(p) def2/J RI DEFGRID1 loosescf d4 GCP(DFT/SV(P)) printgap
%output
    printlevel normal
end
* xyz 0 1
C 5.6521811088 0.1193391193 -0.0111563394
C 4.4509585523 0.3833700307 -0.8952541229
O 3.3752408901 0.9978381666 -0.142422011
P 2.2123294945 0.1939694366 0.5546247458
S 1.0000958197 1.4103209082 1.4910294685
O 2.98309042 -0.8534091041 1.4659974765
C 2.3192258497 -1.6526515196 2.4627568772
C 1.854631279 -2.9779461134 1.8909610917
S 1.3504801878 -0.9876066787 -1.0010193475
C 0.3623090143 0.3456511505 -1.7493071561
S -1.2553390576 -0.2306913974 -2.3365368417
P -2.4006571397 -0.0469241492 -0.5779706616
S -4.3130802655 -0.3591012212 -0.8663908476
O -2.0490873611 1.367044735 0.0731178131
C -2.8246010726 2.5422430865 -0.2014250763
C -2.5236490077 3.1037469051 -1.5766296095
O -1.5853125933 -1.0404493048 0.3519367385
C -1.677969074 -1.0815412423 1.7931341588
C -3.0957187878 -1.2613616781 2.2900939719
H 5.4068154325 -0.6118480757 0.7538483197
H 6.4646046416 -0.2607579734 -0.6227230095
H 5.9681838722 1.0398307891 0.4721820105
H 4.0812396868 -0.5405194512 -1.348894567
H 4.684361064 1.1129648939 -1.6727324533
H 3.0739349565 -1.801690247 3.2372078197
H 1.4838503083 -1.0779854012 2.8761436759
H 1.1017671255 -2.824285515 1.1205613994
H 2.6938194142 -3.5091018291 1.4506681481
H 1.431127559 -3.5802480137 2.6886470859
H 0.8777022758 0.7190674076 -2.6301087435
H 0.2191739386 1.1274677468 -1.0002228571
H -3.8856074859 2.2846167478 -0.1158987712
H -2.5419988418 3.2370619533 0.5910577113
H -1.462322446 3.3180501472 -1.6755132154
H -2.8153440445 2.3854142456 -2.342336586
H -3.0875127037 4.0197339182 -1.7202287972
H -1.0550174131 -1.9375152085 2.0603893867
H -1.2378188157 -0.16142819 2.1873242233
H -3.5502244436 -2.1365933149 1.8310450768
H -3.0825001547 -1.3845848526 3.3685086099
H -3.6977911702 -0.389023694 2.0399360157
*
