! r2scan-3c def2/J RI DEFGRID2 scfconv6 printgap
%output
    printlevel normal
end
* xyz 0 1
C 1.7694382501 0.3422648339 -3.2608647161
C 2.3924817775 0.3990683029 -1.8829816197
O 1.5919418352 -0.4279484167 -1.0088405553
P 1.9312824974 -0.5569681919 0.5293082624
S 2.3916043733 1.0699897134 1.5289679012
O 3.0954938086 -1.6427165337 0.4713440086
C 3.8916933898 -1.9754749031 1.6274358284
C 5.2605814538 -1.3320352185 1.5226765091
S 0.3049293649 -1.6710261125 1.2424251389
C -0.7058405365 -0.3538224396 2.0115135239
S -2.3402695167 -0.2000218406 1.2650913565
P -1.7567786846 0.6682428481 -0.5882937912
S -0.3964255747 2.0744020551 -0.4925093336
O -3.1260090907 1.1376440695 -1.2433706964
C -3.7048475814 2.4299424735 -0.9974426199
C -4.2057809828 2.575815502 0.4250134203
O -1.3105054416 -0.5175571988 -1.5245436398
C -1.9033586621 -1.8375981947 -1.6043300285
C -3.3868935035 -1.8025841066 -1.8975026427
H 2.3381166868 0.9736043145 -3.9356488088
H 1.7695199003 -0.6799424806 -3.6274839103
H 0.743549614 0.6998703618 -3.2116297107
H 2.3905034556 1.4192305752 -1.4834924613
H 3.4151960063 0.0134921453 -1.8826865075
H 3.3752062892 -1.6402621244 2.5311207772
H 3.9575422064 -3.0647454721 1.6240506268
H 5.865976271 -1.6390087547 2.3692158733
H 5.7480695302 -1.6363675778 0.6007210013
H 5.162944354 -0.2482617962 1.5305870662
H -0.1613995878 0.5914499893 1.9309083509
H -0.8708004357 -0.6247121547 3.0509825063
H -2.9539853142 3.1943997881 -1.2212983466
H -4.5206130212 2.489255911 -1.7191832297
H -3.3658997949 2.5991370215 1.1172031301
H -4.7590177576 3.5051523229 0.5150844884
H -4.853222492 1.7429471029 0.6863109295
H -1.3413369989 -2.3090967465 -2.4118937461
H -1.7013252343 -2.3618922098 -0.6656820253
H -3.58163013 -1.2134268382 -2.7896840928
H -3.7373538589 -2.8183654491 -2.0527061288
H -3.927301251 -1.3651483012 -1.0607949651
*
