! pbe def2-sv(p) def2/J RI DEFGRID1 loosescf d4 GCP(DFT/SV(P)) printgap
%output
    printlevel normal
end
* xyz 0 1
C 4.4311142462 -1.6093797353 -1.0432628877
C 4.6320006211 -0.1340492144 -0.7639674554
O 3.5785426367 0.4253860717 0.0408009347
P 2.0713563034 0.5467762888 -0.46781953
S 1.8782186546 1.0070025545 -2.3571266016
O 1.5196246656 1.641091241 0.5249167062
C 1.7270485583 1.5568669727 1.9578807972
C 0.8711171088 2.6231095141 2.6074610109
S 1.2296908505 -1.304307654 0.1548954353
C 0.040089583 -1.6028033592 -1.1935213782
S -1.628077169 -1.9096047354 -0.5899266682
P -1.9898336237 0.0242159818 0.2261517077
S -1.4023813057 1.5032780902 -0.9238982276
O -1.2778872321 0.1560938811 1.6275046113
C -1.6723459718 -0.4938861401 2.8640039611
C -1.4214525087 -1.9878284383 2.8450496005
O -3.5169147979 -0.0418266862 0.6527771274
C -4.5872244243 -0.5356729863 -0.1739213229
C -4.6814670228 0.1855612295 -1.5016122382
H 4.2577732134 -2.1519254143 -0.1174047005
H 3.5757525675 -1.747926951 -1.7027837358
H 5.3167873587 -2.0017056761 -1.5324570439
H 4.6833285388 0.4297538038 -1.7003811153
H 5.5299966001 0.0458032823 -0.17111077
H 1.4405538967 0.5532116121 2.2865278583
H 2.7895874055 1.7132040858 2.1543520747
H 0.998034127 2.5782259449 3.6842973308
H 1.1642311376 3.6053311698 2.2475615784
H -0.1738810493 2.4619001698 2.3542009076
H 0.339803897 -2.5038982348 -1.7225021407
H 0.0468620984 -0.7331778499 -1.8570903601
H -1.0525600045 0.0044867542 3.6114593674
H -2.7246783899 -0.2711204464 3.046286996
H -0.4018330497 -2.1977161514 2.5287894473
H -1.5714026729 -2.3793471473 3.8463775085
H -2.1077448082 -2.4864520621 2.1649493521
H -4.4336473855 -1.607275051 -0.3268139579
H -5.4780127204 -0.3691149377 0.4343886007
H -5.5451435884 -0.1766887505 -2.0496668261
H -4.7755422094 1.2578322532 -1.34628683
H -3.7843035051 0.004794161 -2.092306852
*
