! pbe def2-sv(p) def2/J RI DEFGRID1 loosescf d4 GCP(DFT/SV(P)) printgap
%output
    printlevel normal
end
* xyz 0 1
C 4.3738007778 -0.8274342452 -1.9367863251
C 4.5104875693 -0.3910915009 -0.4921234042
O 3.3496296393 -0.7143048851 0.2905342971
P 1.9281555783 -0.0210958949 0.0659341737
S 2.0812645109 1.8970149869 -0.340381733
O 1.217983367 -0.4296463769 1.4178988018
C 1.4464595287 0.3085643488 2.6364461604
C 0.3387935873 -0.0384106183 3.6090153569
S 0.9685033801 -1.2534294724 -1.3375820212
C 0.046673765 -0.0002188327 -2.2787093595
S -1.7663456558 -0.085027362 -2.122106218
P -2.0259753555 0.066177749 -0.0201148911
S -3.8780026995 0.3699109947 0.5327309935
O -0.9407270105 1.1480671268 0.4160959217
C -1.2843458713 2.5504038476 0.3515021696
C -1.6927445933 3.0606422138 1.7181780019
O -1.3228875306 -1.1910547282 0.6342170274
C -2.0322732253 -2.4223333788 0.8566492311
C -2.3050392888 -3.1627616543 -0.4378628643
H 5.3227721789 -0.6848421608 -2.4437222225
H 4.0888181476 -1.8750691423 -1.9899956954
H 3.6138615749 -0.2293422488 -2.4375000669
H 4.676908118 0.6893731396 -0.4312843812
H 5.3204182675 -0.9191419562 0.012983709
H 2.4280526256 0.0269174471 3.0275530918
H 1.4504461752 1.3782773532 2.3982635335
H 0.361736382 -1.1001752579 3.83592301
H 0.4725604918 0.5301957899 4.5237819229
H -0.6270551759 0.2029715136 3.1713245143
H 0.2305854186 -0.1798478237 -3.3351314175
H 0.4026659066 0.9890429691 -1.9810417266
H -0.3812116569 3.0510987658 -0.0064288675
H -2.0930047106 2.6913226997 -0.3732732
H -0.8924725698 2.8959520219 2.434438111
H -1.9012952214 4.1234435647 1.651018367
H -2.5872006039 2.5427029632 2.0584068589
H -1.3692991945 -2.9893535064 1.5118395003
H -2.9679505433 -2.1944746017 1.3781720244
H -1.3808202782 -3.3040068198 -0.993926668
H -2.74008167 -4.130755162 -0.2106947803
H -3.0046455721 -2.5966775473 -1.0522050977
*
