! r2scan-3c def2/J RI DEFGRID2 scfconv6 printgap
%output
    printlevel normal
end
* xyz 0 1
C 1.8279912617 -0.1174387295 1.61265e-05
C 0.6036497017 0.3991563502 1.97598e-05
C -0.6036510198 -0.3991538484 -0.0001296228
C -1.827990135 0.1174368364 5.4623e-05
H 2.7085550048 0.5009604284 6.12176e-05
H 1.9888695251 -1.1830406451 8.35121e-05
H 0.4638284609 1.4723702028 2.11975e-05
H -0.4638289534 -1.4723683008 0.0001811724
H -2.7085536746 -0.5009677815 0.0003571696
H -1.9888680805 1.1830388425 -0.0002381882
*
