  32
        -57.62808424
 C          2.7337640460        3.0762247082        0.2817053063
 C          3.6579646571        1.8853594317        0.1289179028
 O          3.0366660897        0.8230371745       -0.6152137138
 P          1.8639474967       -0.0472051776       -0.0166018772
 S          1.9496096983       -0.4072138313        1.9106412382
 O          1.8057507320       -1.2958107312       -0.9860275101
 C          2.5682687146       -2.4885180400       -0.7273248052
 C          4.0580915689       -2.2466510797       -0.8562407670
 O          0.5926978691        0.7883610052       -0.5462225239
 C         -0.7249576246        0.4886526159       -0.3603370908
 C         -1.6449181184        1.4540944628       -0.7740300960
 C         -2.9936969880        1.2190892701       -0.6282037874
 C         -3.4218810703        0.0175363982       -0.0638998147
 C         -2.5061670936       -0.9458199638        0.3526804371
 C         -1.1561454799       -0.7084901130        0.2010205844
 N         -4.8158399800       -0.2284217466        0.0888438487
 O         -5.1692434479       -1.2921873629        0.5713070626
 O         -5.6003047872        0.6345765258       -0.2697544963
 H          1.8744481503        2.8003269127        0.8916014954
 H          3.2658039636        3.8874417761        0.7687524277
 H          2.3837293994        3.4065232034       -0.6924942296
 H          3.9498651464        1.4989342381        1.1109206411
 H          4.5467101360        2.1351381649       -0.4519753038
 H          2.3254993861       -2.8456036764        0.2788774686
 H          2.2077259892       -3.1995397702       -1.4719672623
 H          4.5869189890       -3.1902152465       -0.7644239172
 H          4.2832263200       -1.7966991907       -1.8194234554
 H          4.3927405146       -1.5750419842       -0.0669679564
 H         -1.2820454111        2.3716627982       -1.2063337987
 H         -3.7264658845        1.9462953771       -0.9407814484
 H         -2.8651706958       -1.8648433925        0.7885008383
 H         -0.4308641023       -1.4392441613        0.5234028460
