! pbe def2-sv(p) def2/J RI DEFGRID1 loosescf d4 GCP(DFT/SV(P)) printgap
%output
    printlevel normal
end
* xyz 0 1
C 1.5423267532 2.2357214045 2.154890465
C 2.4794019458 2.3044589474 0.9670745317
O 3.2719822834 1.1143382803 0.8038506442
P 2.7213536238 -0.3788981633 0.8035974394
S 2.3096546655 -1.216737693 2.5210435354
O 3.9295506605 -1.1371373309 0.1365808249
C 4.4930626551 -0.8065334988 -1.1575486991
C 4.0966917729 -1.850276578 -2.1832167813
S 1.1363566671 -0.3410426494 -0.6480531426
C -0.139015398 -1.2200756638 0.2894766363
S -1.4177185055 -0.1193744191 0.9356711944
P -2.4807977231 0.1095574298 -0.9024923924
S -2.5333920503 -1.4693395716 -2.0590945214
O -1.8153208943 1.3289636822 -1.6460213171
C -1.2936464061 2.5353884887 -1.0388672757
C -2.317031466 3.2607089008 -0.1931069551
O -3.9026566299 0.6778054835 -0.4787399297
C -5.012511067 -0.176784402 -0.1567211984
C -4.7814408782 -0.9667090059 1.1156040369
H 1.0405187011 3.190606219 2.2747063416
H 0.792434351 1.4576696355 2.0111643005
H 2.0975523251 2.0056105541 3.0611008319
H 3.2239409816 3.0925476753 1.0934169337
H 1.924574389 2.4685615571 0.0384021047
H 4.1596168478 0.1902045372 -1.4528797144
H 5.5722849943 -0.7999634311 -0.9967887712
H 3.0233707783 -1.8303968897 -2.3574975467
H 4.609440594 -1.642968089 -3.1171058961
H 4.3765876695 -2.8399211836 -1.8328602296
H 0.3276647057 -1.7080167022 1.1482440386
H -0.6050511493 -1.9410174823 -0.3835178388
H -0.4204671214 2.2618101386 -0.4410260451
H -0.9814514468 3.1291518316 -1.8990526135
H -2.5787650085 2.6617238394 0.6768758388
H -1.8969024019 4.2049510345 0.1394142072
H -3.2168023866 3.4510442638 -0.7719534518
H -5.8507603721 0.5138200548 -0.0546074691
H -5.1870012251 -0.8514405353 -1.0009184816
H -3.9895661674 -1.6985615647 0.9625425667
H -4.4951582147 -0.30393953 1.928330673
H -5.6935351763 -1.4907753683 1.3825861704
*
