! pbe def2-sv(p) def2/J RI DEFGRID1 loosescf d4 GCP(DFT/SV(P)) printgap
%output
    printlevel normal
end
* xyz 0 1
C 0.581720274 1.4044417711 0.5195672024
C 1.4510546027 0.330906331 -0.1323670231
H 1.5641394629 0.5701328988 -1.2011389469
C 0.7347446224 -1.030070748 -0.0338249652
H 1.0566040844 -1.5145609665 0.8993098424
C -0.7926884437 -0.8507486798 0.0721535256
H -1.2877134887 -1.6933294724 -0.4375340888
C -1.2718599253 0.4250237456 -0.6377155566
H -1.1097006494 0.3031787435 -1.7263248198
O -0.6068837073 1.5988482478 -0.2234218079
O -2.6304880699 0.5557175783 -0.3638126677
O -1.1462053697 -0.8410143214 1.4308790567
O 1.1071885556 -1.78349566 -1.1614112043
O 2.6985374785 0.3217687522 0.5100859779
H 1.0969952608 2.3647911765 0.510436094
H 0.3640023505 1.1135591903 1.5537427385
H -2.9266152691 1.441454471 -0.6230624895
H -2.0723344906 -0.5562105769 1.4976004786
H 0.8259616274 -2.7039459393 -1.0573796047
H 3.2842607275 -0.3043200171 0.0600741558
*
