  20
        -34.25343484
 C          2.3566723914       -1.3843761165        0.5397670378
 C          1.5247834610       -0.4395091584       -0.2661860066
 O          0.9075096069       -0.7293453982       -1.2699787800
 O          1.5312142830        0.7837267481        0.2607987238
 C          0.6956766593        1.7931035724       -0.3162823138
 C         -0.6964697369        1.7930490948        0.3164269600
 O         -1.5319590337        0.7834581304       -0.2603741310
 C         -1.5244740194       -0.4400021574        0.2660769786
 O         -0.9060654868       -0.7300344381        1.2691107969
 C         -2.3568850353       -1.3848590594       -0.5393577021
 H          2.7080859740       -2.1973537381       -0.0868383751
 H          1.7131629171       -1.7894719203        1.3203421555
 H          3.1786446937       -0.8524758736        1.0066099634
 H          1.2005327945        2.7347882828       -0.1044784877
 H          0.6127395134        1.6225970794       -1.3943284883
 H         -1.2014843938        2.7345905682        0.1043610501
 H         -0.6134785190        1.6228337583        1.3945138295
 H         -1.7138258435       -1.7904106085       -1.3200624962
 H         -3.1789235524       -0.8528706468       -1.0059832299
 H         -2.7082579031       -2.1976020056        0.0876000021
  20
        -34.25259997
 C          2.3818804934       -1.3721258385        0.5503347324
 C          1.5541898155       -0.4303153159       -0.2637745094
 O          0.9583910511       -0.7174685584       -1.2807059566
 O          1.5382250690        0.7892956986        0.2726236728
 C          0.6997279409        1.7911347520       -0.3126451599
 C         -0.6974160625        1.7790138321        0.3081149469
 O         -1.5281415009        0.7705905027       -0.2783506962
 C         -1.5384750290       -0.4506068424        0.2523476257
 O         -0.8942195446       -0.7555371030        1.2344084025
 C         -2.4639017120       -1.3616098235       -0.4902498469
 H          1.7349016825       -1.7734981287        1.3298819255
 H          3.2015673572       -0.8381602225        1.0189357887
 H          2.7365833673       -2.1871720992       -0.0716315415
 H          1.1938882097        2.7375472681       -0.0964996199
 H          0.6287976121        1.6196276903       -1.3913853931
 H         -1.2051199078        2.7197674378        0.0983067989
 H         -0.6202239726        1.6030064966        1.3857286824
 H         -2.1130575661       -2.3848505137       -0.4022561726
 H         -2.5210376430       -1.0567571691       -1.5296964618
 H         -3.4524099197       -1.2882418582       -0.0414106443
  20
        -34.25162942
 C          2.2337439047       -1.5415752457        0.5369823493
 C          1.8314742684       -0.2992515193       -0.1900012401
 O          2.0799599085       -0.0469477937       -1.3489479105
 O          1.1428273022        0.5292005930        0.6002028159
 C          0.5910377429        1.7100783965        0.0111592246
 C         -0.6657142830        1.3864322919       -0.7969032876
 O         -1.6836274043        0.8530588482        0.0509539564
 C         -1.7354533969       -0.4661063642        0.2399135045
 O         -1.0067550377       -1.2539301802       -0.3261101651
 C         -2.7955811288       -0.8299906821        1.2309487552
 H          2.3971897628       -1.3246864191        1.5872063483
 H          3.1150828278       -1.9726774086        0.0742541978
 H          1.4059335291       -2.2445593384        0.4471048811
 H          0.3521436519        2.3576524945        0.8545752637
 H          1.3312431599        2.1703555116       -0.6489895022
 H         -0.4272404298        0.6612532445       -1.5817751200
 H         -1.0786816444        2.2983450339       -1.2261767032
 H         -2.3348892516       -0.8794479575        2.2157262706
 H         -3.2024324357       -1.8070737613        0.9905559578
 H         -3.5687636200       -0.0694130396        1.2415433580
  20
        -34.25147143
 C          2.8495908699       -0.8257821932       -1.1918893362
 C          1.7428538500       -0.4661581513       -0.2507416260
 O          1.0018267502       -1.2592299898        0.2917402495
 O          1.6803067679        0.8513896593       -0.0573615511
 C          0.6629442608        1.3750089210        0.7975858802
 C         -0.5953983057        1.7096493864       -0.0032566479
 O         -1.1567526715        0.5364807623       -0.5981879473
 C         -1.8431906928       -0.2956130042        0.1895397445
 O         -2.0802092462       -0.0537604883        1.3532264015
 C         -2.2596340974       -1.5281810879       -0.5462108377
 H          3.6584096678       -1.2737358990       -0.6186500683
 H          3.2082566644        0.0631959422       -1.6984978264
 H          2.4930253399       -1.5656788981       -1.9024899863
 H          0.4250826944        0.6408414443        1.5742063311
 H          1.0769737422        2.2817727033        1.2368576983
 H         -0.3572723112        2.3621891595       -0.8430585059
 H         -1.3301181446        2.1689572417        0.6637633016
 H         -2.4154813848       -1.3028385327       -1.5958026059
 H         -3.1488156368       -1.9496765650       -0.0895226879
 H         -1.4423832295       -2.2433406957       -0.4566917599
  20
        -34.25143001
 C          2.1858308919       -1.6878970393       -0.2347522682
 C          1.8496664338       -0.2547920515        0.0242317767
 O          2.2408159410        0.4042274752        0.9630781073
 O          1.0428157226        0.2369461274       -0.9200297274
 C          0.5414037843        1.5650623652       -0.7461860423
 C         -0.5835914100        1.5991900126        0.2884429855
 O         -1.6908613325        0.8084919688       -0.1455815889
 C         -1.7360735156       -0.4786304095        0.2009003724
 O         -0.9032127245       -1.0140656032        0.9018217564
 C         -2.9506677881       -1.1476911022       -0.3617782086
 H          1.4039434639       -2.2867692133        0.2315867736
 H          3.1383896777       -1.9337660120        0.2224265077
 H          2.1893174652       -1.8846912995       -1.3014975424
 H          1.3504428957        2.2216415882       -0.4144738823
 H          0.1716617885        1.8546876553       -1.7296178799
 H         -0.9623198984        2.6151370035        0.3934470524
 H         -0.2176279994        1.2200029595        1.2481187155
 H         -3.1345397423       -0.7881100546       -1.3689433621
 H         -3.8055052894       -0.8852417474        0.2578441166
 H         -2.8162715174       -2.2241569734       -0.3460340799
  20
        -34.25062593
 C          2.3678609960       -1.4970292933        0.5547228235
 C          1.8503179553       -0.3095873148       -0.1932377387
 O          2.0576622448       -0.0698053727       -1.3629750534
 O          1.1488078755        0.5046258935        0.5992791983
 C          0.5924172734        1.6882658195        0.0191673908
 C         -0.6660100594        1.3768874539       -0.7901600259
 O         -1.6955032684        0.8612999582        0.0547013250
 C         -1.7727356428       -0.4582633076        0.2365759276
 O         -1.0524141745       -1.2547342072       -0.3269381720
 C         -2.8499191603       -0.8071680736        1.2150145014
 H          2.4606987345       -2.3379294871       -0.1249132329
 H          1.7015696508       -1.7336444046        1.3772282685
 H          3.3519565584       -1.2533129971        0.9497949856
 H          0.3559834085        2.3299451270        0.8679169609
 H          1.3311757774        2.1532662833       -0.6393969376
 H         -0.4349399543        0.6457126167       -1.5716033090
 H         -1.0644008128        2.2931594068       -1.2241614964
 H         -2.4121688568       -0.8213903613        2.2112200173
 H         -3.2403226715       -1.7950767073        0.9927777646
 H         -3.6315394310       -0.0555316233        1.1871754933
  20
        -34.25050462
 C          3.0025960025       -1.1172837591        0.3706174425
 C          1.7817670264       -0.4683241734       -0.2025873102
 O          0.9617277520       -1.0143502101       -0.9092983730
 O          1.7095285696        0.8164687828        0.1517569606
 C          0.5854316394        1.5838401030       -0.2802681772
 C         -0.5388322981        1.5293503894        0.7534376601
 O         -1.0507106292        0.2018616313        0.9035448871
 C         -1.8770379436       -0.2594135533       -0.0383116183
 O         -2.2309982895        0.4080780894       -0.9860175423
 C         -2.3270030689       -1.6548889169        0.2573359555
 H          3.0023538731       -0.9913394638        1.4496254662
 H          3.8848877829       -0.6216087166       -0.0258809962
 H          3.0145719826       -2.1697953536        0.1084686324
 H          0.9433578092        2.6074016261       -0.3847462870
 H          0.2270092383        1.1983673851       -1.2402432713
 H         -1.3446353465        2.1966503452        0.4355221408
 H         -0.1668195556        1.7981470887        1.7420557598
 H         -2.5432062494       -2.1682636286       -0.6739659728
 H         -3.2370614684       -1.6051244606        0.8516577002
 H         -1.5610683916       -2.1769604874        0.8207206198
  20
        -34.24824696
 C          3.0507546821       -1.4701158155       -0.4862058574
 C          2.3116960759       -0.1699961315       -0.4956954467
 O          2.5200573299        0.7533340451       -1.2530495902
 O          1.3649071540       -0.1389666637        0.4461523235
 C          0.5457483474        1.0263200785        0.5333302762
 C         -0.5475379382        1.0280073134       -0.5344986773
 O         -1.3686653691       -0.1360132705       -0.4497541676
 C         -2.3109933589       -0.1703314147        0.4965898990
 O         -2.5135303207        0.7491499300        1.2601139362
 C         -3.0527088267       -1.4688369197        0.4831801141
 H          3.0254803531       -1.9035739285        0.5077757007
 H          4.0697002707       -1.3141769339       -0.8258609222
 H          2.5550426438       -2.1481392082       -1.1782395761
 H          0.1070568093        0.9975176244        1.5313905100
 H          1.1627987584        1.9201658145        0.4055136866
 H         -0.1088538678        1.0001193181       -1.5326056813
 H         -1.1630474984        1.9227146754       -0.4052904349
 H         -3.0537418435       -1.8845380966       -0.5187044407
 H         -4.0622481375       -1.3175685542        0.8515181795
 H         -2.5398999338       -2.1603260437        1.1488611978
  20
        -34.24818523
 C          3.1020990209       -1.4512765213       -0.3819210535
 C          2.3759518014       -0.1652316818       -0.1460449276
 O          2.7667484352        0.7463070439        0.5511680150
 O          1.2141478978       -0.1312621874       -0.8040563044
 C          0.3903601139        1.0236090939       -0.6484011132
 C         -0.3819248021        0.9935660158        0.6698748004
 O         -1.2003981580       -0.1707964285        0.7737207660
 C         -2.3736799496       -0.1707141188        0.1351233520
 O         -2.7671979596        0.7686757841       -0.5223087360
 C         -3.1214946290       -1.4456708301        0.3637424785
 H          2.8625448249       -2.1321762703        0.4324808520
 H          4.1727770796       -1.2725795367       -0.3750581982
 H          2.7794784685       -1.8927916808       -1.3185668959
 H          1.0115280725        1.9234757595       -0.6705278703
 H         -0.2963121255        1.0053350001       -1.4954882874
 H         -1.0066239043        1.8891745724        0.7306371566
 H          0.3049642459        0.9418542288        1.5154671465
 H         -3.7762640559       -1.3087307315        1.2220912936
 H         -2.4253722146       -2.2496777369        0.5767469920
 H         -3.7343089983       -1.6702991565       -0.5034645804
  20
        -34.24819101
 C          3.1006939536       -1.4483433488       -0.4741372736
 C          2.3218053831       -0.1716442356       -0.5002482081
 O          2.5230103663        0.7600358474       -1.2495655389
 O          1.3648452428       -0.1615798881        0.4312551687
 C          0.5455449099        1.0021564318        0.5371943828
 C         -0.5496078034        1.0196781299       -0.5284241256
 O         -1.3816586261       -0.1368558531       -0.4490790684
 C         -2.3270102507       -0.1648032686        0.4943216608
 O         -2.5220712515        0.7539440918        1.2607878310
 C         -3.0829634393       -1.4550106458        0.4736818424
 H          3.2342655841       -1.8104633028       -1.4894269480
 H          2.5890673241       -2.1818848772        0.1388941644
 H          4.0855747738       -1.2444750959       -0.0595724763
 H          0.1085225824        0.9593256290        1.5355322360
 H          1.1622250377        1.8978095472        0.4208149346
 H         -0.1127038106        0.9937911543       -1.5273427069
 H         -1.1567459003        1.9191757901       -0.3926823678
 H         -3.0666069885       -1.8780113804       -0.5249989755
 H         -4.0986344736       -1.2894900392        0.8186031356
 H         -2.5938254805       -2.1469828642        1.1565121187
  20
        -34.24814442
 C          3.1424598467       -1.4272267643       -0.4636097828
 C          2.3430925303       -0.1634370550       -0.4964857797
 O          2.5302963896        0.7676847583       -1.2502370634
 O          1.3842484822       -0.1644345109        0.4330288507
 C          0.5472201017        0.9871633206        0.5322514934
 C         -0.5474905520        0.9839360961       -0.5337332848
 O         -1.3820099886       -0.1689616528       -0.4297111452
 C         -2.3422388229       -0.1648069272        0.4987080827
 O         -2.5303694136        0.7684045177        1.2493641046
 C         -3.1449550606       -1.4263350863        0.4631324320
 H          4.1300615320       -1.2022618130       -0.0669923219
 H          3.2670829977       -1.8014428236       -1.4757335617
 H          2.6510059579       -2.1601727002        0.1664023718
 H          0.1099921150        0.9431738264        1.5304363850
 H          1.1509375206        1.8910813285        0.4117123745
 H         -0.1100701189        0.9368148077       -1.5316810168
 H         -1.1528075108        1.8872719894       -0.4168855178
 H         -4.0313213285       -1.2505382749       -0.1432015654
 H         -3.4647241828       -1.6837809428        1.4680304001
 H         -2.5617471188       -2.2238753484        0.0159685015
  20
        -34.24808980
 C          3.1598435891       -1.4242478993       -0.3796378202
 C          2.3955936854       -0.1619384492       -0.1353865910
 O          2.7734655162        0.7718199087        0.5386796442
 O          1.2243517421       -0.1684076258       -0.7783353757
 C          0.3895842382        0.9824836576       -0.6566213940
 C         -0.3890425714        0.9799093348        0.6581389278
 O         -1.2234835785       -0.1715944726        0.7760400844
 C         -2.3962248316       -0.1621136777        0.1354990840
 O         -2.7745553879        0.7742026104       -0.5346702905
 C         -3.1600193223       -1.4252838496        0.3763419885
 H          3.5879749128       -1.3813105984       -1.3787546499
 H          2.4865083466       -2.2743524044       -0.3346956954
 H          3.9576766343       -1.5160052511        0.3498016112
 H          1.0028801219        1.8870772181       -0.6983480713
 H         -0.2928974561        0.9374917245       -1.5061609150
 H         -1.0026563047        1.8841119805        0.7034977155
 H          0.2936731614        0.9318280763        1.5073301956
 H         -3.9879750809       -1.4912164239       -0.3215631928
 H         -3.5428581638       -1.4103327487        1.3943227611
 H         -2.4956462777       -2.2780658759        0.2772123807
  20
        -34.24751521
 C          3.9158772249        0.1449891358       -0.4902383162
 C          2.5059973983       -0.2334779731       -0.1643714107
 O          2.0275581579       -1.3400635397       -0.2835399667
 O          1.8109744001        0.8181040786        0.2820436671
 C          0.4421006496        0.6301336966        0.6266623410
 C         -0.4426587624        0.6318593621       -0.6258633880
 O         -1.8117280343        0.8183214857       -0.2812295077
 C         -2.5059496135       -0.2344654948        0.1637024956
 O         -2.0266179479       -1.3407872768        0.2814021305
 C         -3.9157246124        0.1428481220        0.4912302427
 H          4.1528393582        1.1063041583       -0.0483070989
 H          4.0142336102        0.2059813747       -1.5719447920
 H          4.5897681506       -0.6291441378       -0.1355845176
 H          0.3209390099       -0.3162618450        1.1642415361
 H          0.1849034468        1.4746146501        1.2678232194
 H         -0.3210093230       -0.3129319266       -1.1661312232
 H         -0.1856618172        1.4782674418       -1.2645706353
 H         -4.0041807239        0.2349326325        1.5716519272
 H         -4.5872707274       -0.6454952288        0.1648807841
 H         -4.1632598407        1.0902438871        0.0255825496
  20
        -34.24747622
 C          3.9631658441        0.3134235014        0.1199583872
 C          2.6138298690        0.0539894965       -0.4692552575
 O          2.3156765189        0.1916496672       -1.6355408700
 O          1.7449393919       -0.3583585242        0.4602086724
 C          0.4100625404       -0.6402135963        0.0537608326
 C         -0.4120514400        0.6497567519       -0.0481912755
 O         -1.7466348572        0.3697502136       -0.4569667227
 C         -2.6133929668       -0.0568655617        0.4679677214
 O         -2.3137703949       -0.2085058581        1.6321212733
 C         -3.9621632850       -0.3139800053       -0.1235371475
 H          4.7260768233       -0.1245438653       -0.5171177105
 H          4.0120660980       -0.0906962849        1.1248652809
 H          4.1275109340        1.3883796894        0.1475496090
 H          0.4181155297       -1.1464011092       -0.9172273437
 H         -0.0010862321       -1.2909360288        0.8272751635
 H          0.0002337952        1.3011224099       -0.8205573978
 H         -0.4209661656        1.1551058476        0.9232123896
 H         -4.0296623536        0.1435071943       -1.1042446510
 H         -4.7293743745        0.0678503405        0.5434944238
 H         -4.0997104715       -1.3894637063       -0.2128104530
  20
        -34.24745854
 C          3.9679959960        0.2947411668        0.1160879914
 C          2.6135710993        0.0513651831       -0.4685255161
 O          2.3160531225        0.1817225677       -1.6359303730
 O          1.7415449737       -0.3455469504        0.4645336517
 C          0.4067425274       -0.6297623468        0.0594285396
 C         -0.4154280182        0.6595229677       -0.0507134821
 O         -1.7500521484        0.3774844989       -0.4576382288
 C         -2.6131656943       -0.0550178074        0.4686410639
 O         -2.3110266921       -0.2058406635        1.6320717850
 C         -3.9591276442       -0.3239697321       -0.1235719821
 H          3.9548235647        0.0840115763        1.1794842385
 H          4.2499468704        1.3290476628       -0.0639272017
 H          4.6919211837       -0.3382869536       -0.3906420376
 H          0.4149918974       -1.1416836999       -0.9085558965
 H         -0.0048803634       -1.2755814212        0.8368345535
 H         -0.0031571416        1.3059698373       -0.8271695229
 H         -0.4238141574        1.1711381420        0.9174065843
 H         -4.7242387962       -0.2047387384        0.6367185832
 H         -3.9766095860       -1.3528920738       -0.4773054800
 H         -4.1307404336        0.3360770819       -0.9670979395
  20
        -34.24739159
 C          3.9716794363       -0.2806827712        0.1156723236
 C          2.6126576329       -0.0649949006       -0.4685757649
 O          2.3086950471       -0.2249005776       -1.6300321433
 O          1.7449628590        0.3536153584        0.4603956477
 C          0.4105400229        0.6342571184        0.0526224201
 C         -0.4145541965       -0.6543388709       -0.0443700849
 O         -1.7475851884       -0.3717310473       -0.4559550368
 C         -2.6140237578        0.0602337222        0.4676106692
 O         -2.3165154283        0.2090219272        1.6324546297
 C         -3.9572375115        0.3308002369       -0.1300356034
 H          4.3934450228        0.6845181279        0.3857122079
 H          4.6100128820       -0.7698831045       -0.6122088059
 H          3.8869919416       -0.8747250288        1.0205736838
 H          0.0000793536        1.2884779719        0.8236364265
 H          0.4180708861        1.1363368675       -0.9205286293
 H         -0.4260944906       -1.1554094764        0.9292547576
 H         -0.0030541546       -1.3103991638       -0.8131402412
 H         -4.7200761964        0.2677430454        0.6390294081
 H         -4.1494809619       -0.3673130928       -0.9379111401
 H         -3.9521128444        1.3390868267       -0.5390382825
  20
        -34.24712903
 C          3.9593306472        0.0669092033        0.2758134462
 C          2.6098436913       -0.2922547175       -0.2606321326
 O          2.3178260523       -1.3499819989       -0.7752280456
 O          1.7458515593        0.7145219744       -0.1074165158
 C          0.3964386830        0.5446043862       -0.5333057962
 C         -0.5351553962        0.9460104521        0.6134575446
 O         -1.8908264739        0.9352095167        0.1764340508
 C         -2.5629337684       -0.2195966084        0.2264368243
 O         -2.0718930137       -1.2520413862        0.6283469652
 C         -3.9714688595       -0.0518058173       -0.2464536027
 H          3.9496059523        1.0834432398        0.6523944059
 H          4.6965680593       -0.0431083173       -0.5151546928
 H          4.2182274296       -0.6302999712        1.0687404765
 H          0.2283842722        1.1948076183       -1.3964984789
 H          0.2324961292       -0.5005091853       -0.8189104936
 H         -0.3283247606        1.9698903973        0.9258711763
 H         -0.4131429311        0.2543690152        1.4531808961
 H         -4.6244584568       -0.0154001487        0.6230346872
 H         -4.2575036332       -0.9109180001       -0.8457342167
 H         -4.0657631454        0.8706329928       -0.8084515664
  20
        -34.24697427
 C          3.9931563526       -0.1049583600        0.2611724432
 C          2.6104494599       -0.1747429701       -0.3036052467
 O          2.1527284369       -1.1021656448       -0.9356580472
 O          1.9166148626        0.9367725942       -0.0388915666
 C          0.5807673302        1.0274876276       -0.5255113193
 C         -0.3812915067        0.2837602498        0.3998080791
 O         -1.7079599932        0.5510276022       -0.0480903448
 C         -2.6774456369       -0.2820652358        0.3376087719
 O         -2.4750512204       -1.2456518809        1.0446569315
 C         -4.0077521382        0.1445422948       -0.1962667638
 H          4.1622530223       -0.9704541496        0.8963347885
 H          4.1171889420        0.8140793902        0.8227076931
 H          4.7094938267       -0.1491130772       -0.5555814007
 H          0.3413726095        2.0906699389       -0.5416328599
 H          0.5249301037        0.6046840898       -1.5331899565
 H         -0.2686282121        0.6361712675        1.4306785678
 H         -0.1960224783       -0.7960749336        0.3743883229
 H         -4.6493774919       -0.7229074631       -0.3125570255
 H         -3.8771858972        0.6708870111       -1.1356370571
 H         -4.4644655681        0.8200177653        0.5242922865
  20
        -34.24690849
 C          3.9870897855        0.3953346863       -0.4657905825
 C          2.7171767177       -0.3325674184       -0.1597029593
 O          2.6054485684       -1.5306793356       -0.0118186797
 O          1.6851643789        0.5066029474       -0.0446020763
 C          0.4158472433       -0.0594411789        0.2730188058
 C         -0.5969090419        1.0821391961        0.3335254412
 O         -1.8583055545        0.6134917628        0.8016661715
 C         -2.6574220995       -0.0179560634       -0.0641976049
 O         -2.3517940627       -0.2132906680       -1.2206482529
 C         -3.9492596536       -0.4176874760        0.5736087418
 H          4.5253019289        0.5524098256        0.4667198639
 H          3.7629885768        1.3567196299       -0.9144358448
 H          4.6066720053       -0.2120789607       -1.1180824661
 H          0.1372414597       -0.7884572290       -0.4961432337
 H          0.4754252846       -0.5771882144        1.2366550773
 H         -0.7115423919        1.5237989407       -0.6607803293
 H         -0.2751515512        1.8351345319        1.0527316298
 H         -4.1684178316       -1.4523153015        0.3257355008
 H         -4.7452046489        0.1990257570        0.1623341779
 H         -3.8905970300       -0.2774881286        1.6470445436
  20
        -34.24683383
 C          3.9967147591       -0.2128829604        0.2450870135
 C          2.6576198397       -0.1109606751       -0.4118452190
 O          2.2881966317       -0.7624073727       -1.3645220831
 O          1.8871575394        0.8033531360        0.1863644121
 C          0.5721250571        1.0109404729       -0.3210452613
 C         -0.3733461438       -0.0958988864        0.1457557244
 O         -1.6930566537        0.2484251610       -0.2688482289
 C         -2.7200751907       -0.2038650099        0.4543451963
 O         -2.5798241997       -0.8896253128        1.4442228222
 C         -4.0285761850        0.2441179647       -0.1147108050
 H          4.7648270687       -0.3349328871       -0.5126253883
 H          4.0027162941       -1.0985404859        0.8770566459
 H          4.1785243561        0.6657022833        0.8539805983
 H          0.2543472419        1.9758835174        0.0741326108
 H          0.5962250968        1.0328136330       -1.4146304482
 H         -0.3477001204       -0.1992231723        1.2362597890
 H         -0.0945589350       -1.0521526625       -0.3096673674
 H         -4.5689731919       -0.6275845837       -0.4762124024
 H         -3.8589286990        0.9413776950       -0.9273654606
 H         -4.6232013251        0.7001820461        0.6720095467
  20
        -34.24676668
 C          4.0170722549       -0.0230490841        0.2695399241
 C          2.6687577900        0.3176668189       -0.2792137093
 O          2.3348686864        1.3997916082       -0.7100138813
 O          1.8533603077       -0.7420023006       -0.2632869230
 C          0.5425439979       -0.5907001251       -0.8006834868
 C         -0.3779476190        0.1132036485        0.1984834230
 O         -1.7004955768        0.1188166658       -0.3326406816
 C         -2.7230605390       -0.1437232966        0.4862206887
 O         -2.5852394582       -0.3937690114        1.6638696892
 C         -4.0281663639       -0.0738338548       -0.2406569681
 H          4.4550750395        0.8537284907        0.7356749070
 H          4.6549892571       -0.3287797573       -0.5573911525
 H          3.9336129295       -0.8458182034        0.9711578044
 H          0.5859006932       -0.0101375421       -1.7270725551
 H          0.1897699271       -1.6030053867       -0.9992028398
 H         -0.0570160411        1.1500247469        0.3404160667
 H         -0.3742121287       -0.4057733393        1.1632703774
 H         -4.7818533957       -0.6297848931        0.3071204398
 H         -3.9093599007       -0.4550171023       -1.2495094161
 H         -4.3312424192        0.9693480102       -0.3009489392
