  20
        -34.25343484
 C          2.3566723914       -1.3843761165        0.5397670378
 C          1.5247834610       -0.4395091584       -0.2661860066
 O          0.9075096069       -0.7293453982       -1.2699787800
 O          1.5312142830        0.7837267481        0.2607987238
 C          0.6956766593        1.7931035724       -0.3162823138
 C         -0.6964697369        1.7930490948        0.3164269600
 O         -1.5319590337        0.7834581304       -0.2603741310
 C         -1.5244740194       -0.4400021574        0.2660769786
 O         -0.9060654868       -0.7300344381        1.2691107969
 C         -2.3568850353       -1.3848590594       -0.5393577021
 H          2.7080859740       -2.1973537381       -0.0868383751
 H          1.7131629171       -1.7894719203        1.3203421555
 H          3.1786446937       -0.8524758736        1.0066099634
 H          1.2005327945        2.7347882828       -0.1044784877
 H          0.6127395134        1.6225970794       -1.3943284883
 H         -1.2014843938        2.7345905682        0.1043610501
 H         -0.6134785190        1.6228337583        1.3945138295
 H         -1.7138258435       -1.7904106085       -1.3200624962
 H         -3.1789235524       -0.8528706468       -1.0059832299
 H         -2.7082579031       -2.1976020056        0.0876000021
