! pbe def2-sv(p) def2/J RI DEFGRID1 loosescf d4 GCP(DFT/SV(P)) printgap
%output
    printlevel normal
end
* xyz 0 1
C 0.8931756531 -3.8175321198 -1.5965565283
C 1.8440496566 -3.5564990039 -0.4391429467
O 1.7460529966 -2.1918473917 0.0079698649
C 2.4535463854 -1.2724281031 -0.6201074428
O 3.2334905418 -1.4894094866 -1.5179570929
C 2.143164339 0.1088397712 -0.0726033287
C 1.0986568718 0.7873505801 -0.9702106727
H 1.5521438059 1.0828502936 -1.9185344096
C 0.5178731229 1.9935179461 -0.2563547045
O -0.6376259014 2.0178777306 0.123726435
O 1.3940060643 2.9351543035 -0.0763729036
C 0.9912450352 4.129111097 0.6357158252
C 0.3335826974 5.1240959239 -0.3051766094
S -0.2965623661 -0.2982431511 -1.4194491673
P -1.3521805784 -0.3775914611 0.4102179213
S -0.5905098045 -0.1080066972 2.2088036092
O -2.8112787461 0.2448221363 0.2097274958
C -3.2887125683 1.4650357956 0.7747710097
O -1.7176286867 -1.9206410904 0.1559121045
C -2.5069342171 -2.6553856727 1.0948937078
H -0.1178148697 -3.5278044867 -1.3200410716
H 1.1932444663 -3.2364354179 -2.4654778353
H 0.9124224588 -4.8725391222 -1.8480064683
H 2.8792202695 -3.7496409465 -0.7351059594
H 1.5797320352 -4.1485962696 0.4372554649
H 3.0485879733 0.7152626146 -0.0690538558
H 1.7560733315 -0.0016994753 0.9419962277
H 0.3122606349 3.8397123201 1.4420132073
H 1.9229821501 4.520165768 1.0433709054
H 1.0054758608 5.3665149812 -1.1236404232
H -0.5857188493 4.7092587341 -0.7118126013
H 0.0972703438 6.0296116843 0.2435631952
H -4.3501908185 1.3136982891 0.9584063102
H -3.1290110016 2.278848009 0.0709926682
H -2.7645529348 1.6773961719 1.7076895309
H -2.4170292687 -3.699598281 0.8062075559
H -3.5465445817 -2.3327998442 1.0446480699
H -2.1215695733 -2.5059115072 2.1058234336
*
