! pbe def2-sv(p) def2/J RI DEFGRID1 loosescf d4 GCP(DFT/SV(P)) printgap
%output
    printlevel normal
end
* xyz 0 1
C 4.2496418364 0.5181901966 -2.4593021042
C 4.013947326 -0.9510551516 -2.17087852
O 3.9125693301 -1.2304829396 -0.7643062209
P 2.8798368035 -0.5552989621 0.2266360249
S 3.309359952 1.228993614 0.9353527581
O 2.9444137274 -1.7119617857 1.3039283921
C 2.5700110407 -1.5155069308 2.6774453007
C 1.0646723366 -1.528774424 2.8536991112
S 1.0117663665 -0.7268461655 -0.7973806227
C 0.3242847987 0.9217755661 -0.4696735067
S -0.9890299024 0.9210025754 0.7731245243
P -2.6643442976 0.6026653263 -0.5248462212
S -2.2739359766 0.1382217876 -2.3826996593
O -3.4750356269 1.9525653732 -0.4350644989
C -3.8594724685 2.6103845698 0.7962237366
C -5.2068201343 2.122568792 1.2877875908
O -3.5994697911 -0.4200742625 0.2581625518
C -3.4648156241 -1.8458709363 0.1311888742
C -2.1929737121 -2.3613736122 0.7735250298
H 4.4212851633 0.6549849792 -3.522211416
H 3.3812626693 1.10595919 -2.1631839319
H 5.1135966985 0.8782284923 -1.9053864804
H 4.8610531754 -1.5595886319 -2.4922557625
H 3.1017736607 -1.3018590011 -2.6626382063
H 3.0423161447 -2.3483411377 3.2006320197
H 2.9956998578 -0.5693502161 3.0289838632
H 0.8272642257 -1.5140344171 3.9124310235
H 0.6220501452 -0.6508885622 2.3842180101
H 0.6446642619 -2.4235390899 2.4014964064
H -0.0811135915 1.2924452905 -1.4096539179
H 1.1229090508 1.5630552566 -0.0878356107
H -3.0794195873 2.4418274091 1.5443515408
H -3.893238043 3.6684062643 0.5299223871
H -5.1529703883 1.0737954782 1.5654784937
H -5.4992782023 2.7081675859 2.1538543554
H -5.9527689568 2.2411512803 0.5065478962
H -4.3530006942 -2.236890731 0.6299102797
H -3.4926617252 -2.103101066 -0.9322647085
H -2.1073949129 -1.9888825483 1.791453835
H -2.2143316252 -3.4464313107 0.7867054335
H -1.3254546624 -2.0371666668 0.1998780131
*
