  21
  -28.6458065300000       0.333382716978727      !md1
 C         -1.8566193900       -2.1737668913       -0.0001102042
 C         -1.3904513009       -0.7491505582       -0.0000367251
 C         -2.3019886265        0.2757667202        0.0000034644
 C         -1.8993999278        1.6190350863        0.0000581661
 C         -0.5722127433        1.9381395932        0.0000124652
 C          0.4051304866        0.9208632895        0.0000030351
 C         -0.0022553424       -0.4406581493        0.0000464061
 C          0.9992556246       -1.4360389819        0.0001319965
 C          2.3259311832       -1.1048467824        0.0000717230
 C          2.7239852242        0.2399731221       -0.0000923430
 C          1.7818583680        1.2292060358       -0.0000909920
 H         -2.9425861855       -2.2149966817       -0.0007533481
 H         -1.4904885319       -2.6971146707       -0.8819657550
 H         -1.4915419724       -2.6968054917        0.8823343398
 H         -3.3588846437        0.0498530250        0.0000967203
 H         -2.6502169607        2.3954349581        0.0001902156
 H         -0.2496348000        2.9692858545        0.0000145318
 H          0.7120090029       -2.4755292178        0.0002090816
 H          3.0782971047       -1.8798041439        0.0001250069
 H          3.7758211631        0.4847355962       -0.0001096784
 H          2.0761520688        2.2691539326       -0.0001052721
  21
  -28.6458063900000       0.333333330894709      !gc
 C         -1.8567199944       -2.1737453778        0.0011317736
 C         -1.3904818933       -0.7491616530       -0.0000744357
 C         -2.3020023774        0.2757577683       -0.0003437190
 C         -1.8993787417        1.6189986585       -0.0006058950
 C         -0.5722100784        1.9381135406        0.0000134162
 C          0.4051415005        0.9208644185        0.0001653022
 C         -0.0022493728       -0.4406648269       -0.0002618294
 C          0.9993066276       -1.4360361853       -0.0008201621
 C          2.3259627884       -1.1048340849       -0.0007424423
 C          2.7240024615        0.2400002391        0.0003753398
 C          1.7818760361        1.2292144209        0.0008587995
 H         -1.4891160075       -2.6985564855       -0.8791919728
 H         -1.4931209194       -2.6952085158        0.8851570455
 H         -2.9426946850       -2.2150423279       -0.0011803077
 H         -3.3588954095        0.0498354193       -0.0005491445
 H         -2.6501675127        2.3954225452       -0.0009873515
 H         -0.2496479782        2.9692762632        0.0004322420
 H          0.7120712999       -2.4755084976       -0.0014558154
 H          3.0783201158       -1.8797626438       -0.0013809366
 H          3.7758383261        0.4847842076        0.0009129530
 H          2.0761793261        2.2691586932        0.0018642505
  21
  -28.6458062500000       0.333283952126564      !gc
 C         -1.8567380659       -2.1737383496       -0.0022188531
 C         -1.3904929449       -0.7491615310       -0.0001071615
 C         -2.3020108981        0.2757482663        0.0006309625
 C         -1.8993729547        1.6189840331        0.0012572032
 C         -0.5722097492        1.9381072210        0.0000524058
 C          0.4051505682        0.9208669559       -0.0003938676
 C         -0.0022473343       -0.4406588540        0.0004650686
 C          0.9993114401       -1.4360304570        0.0018448837
 C          2.3259657133       -1.1048307719        0.0015055523
 C          2.7240065289        0.2400023624       -0.0009016579
 C          1.7818844080        1.2292163807       -0.0017413434
 H         -1.4936914533       -2.6974151859        0.8806961373
 H         -2.9427143116       -2.2150830419       -0.0054622267
 H         -1.4885414196       -2.6962821545       -0.8836554487
 H         -3.3589062749        0.0498317078        0.0009139386
 H         -2.6501537555        2.3954158325        0.0022185127
 H         -0.2496634181        2.9692743668       -0.0005345126
 H          0.7120848589       -2.4755019324        0.0034850868
 H          3.0783194539       -1.8797616009        0.0029107826
 H          3.7758436884        0.4847813420       -0.0018492487
 H          2.0761921012        2.2691591310       -0.0034086429
