! r2scan-3c def2/J RI DEFGRID2 scfconv6 printgap
%output
    printlevel normal
end
%cpcm
    smd true
    smdsolvent "water"
end
* xyz 0 1
C 0.6057583193 1.7000099497 -0.0334145319
C 1.399358054 0.4067786746 -0.246707281
H 1.6221288753 0.283000531 -1.3176762934
C 0.5534504456 -0.7994330942 0.1941130775
H 0.3857467668 -0.7513076391 1.2792663133
C -0.809646207 -0.7636334365 -0.5028082625
H -0.6364196337 -0.8973477188 -1.5810497376
C -1.4745709818 0.6160644678 -0.287615156
H -2.3589791191 0.6969617924 -0.9372524437
O -0.6341135587 1.658620026 -0.7232385438
O -1.8141832976 0.7419607837 1.0530261773
O -1.5963181887 -1.7996964278 0.0155052275
O 1.1920786773 -2.0023075397 -0.1552528721
O 2.5818411687 0.3796288099 0.5168802974
H 1.1287860819 2.5643883998 -0.4430348651
H 0.4390534312 1.8370169512 1.0419251576
H -2.3873697465 1.5130896206 1.1849008867
H -2.4081069048 -1.8929153259 -0.503481155
H 2.0538502639 -2.0222189819 0.2877357235
H 3.1889390758 1.0682807816 0.2113335156
*
