! pbe def2-sv(p) def2/J RI DEFGRID1 loosescf d4 GCP(DFT/SV(P)) printgap
%output
    printlevel normal
end
* xyz 0 1
C 3.0833720101 -1.6101139161 1.6200409725
C 2.941753868 -2.2408818674 0.2446203044
O 2.6639429052 -1.2345852811 -0.7490193887
C 1.4251665197 -0.98356299 -1.0873518869
O 0.4552077227 -1.5700674899 -0.6336955172
C 1.3231929842 0.1008281448 -2.1326223195
C 0.1963566911 1.0716002481 -1.8018336884
H 0.1022660361 1.820551371 -2.5937534457
C 0.3678772544 1.8105698591 -0.483412172
O -0.5530353884 2.3817393662 0.0639943761
O 1.6016452643 1.7793377006 -0.054876451
C 1.9146171742 2.4435855352 1.187407672
C 3.4104234649 2.6824822991 1.2256264414
S -1.4626955515 0.2848846151 -1.78490582
P -1.6875632147 -0.4689103538 0.1904629056
S -0.4985653304 -0.2225591991 1.7411170044
O -3.1509087729 0.1152166107 0.5154518006
C -3.3972049377 1.48857134 0.808709225
O -2.2222302587 -1.9442511698 -0.0370170286
C -1.6066355638 -3.1391977357 0.4447991344
H 3.8708019467 -0.8623635761 1.6111503001
H 2.1486590988 -1.1368371971 1.9169564342
H 3.3293813363 -2.3799086298 2.3437706481
H 2.1334649823 -2.9771038312 0.2369620456
H 3.8771559519 -2.6973980459 -0.0806896244
H 1.1022778196 -0.3724927618 -3.0914155742
H 2.2750476187 0.6270736222 -2.1916461127
H 1.3430012388 3.3751331224 1.2344316714
H 1.5811977156 1.7905676532 2.0007632224
H 3.9376420306 1.7393216533 1.1210156744
H 3.707188317 3.3448002693 0.4178992482
H 3.672507522 3.1354436899 2.175606592
H -4.4333561723 1.5352546205 1.1338592515
H -3.2417494993 2.1017643986 -0.0795924136
H -2.7292498353 1.8337153929 1.6000839065
H -0.9384779291 -2.9138434283 1.2779250039
H -1.0443782675 -3.5992771353 -0.365754375
H -2.4175059251 -3.7861584313 0.7723375894
*
