! wb97x-v def2-tzvp def2/J RIJCOSX DEFGRID2 scfconv7 GCP(DFT/TZ) printgap
%output
    printlevel normal
end
* xyz 0 1
C 1.8400375099893267 -0.11986011155786115 2.9380141520004096e-07
C 0.6051415373586525 0.39994429133779064 -4.939316658247841e-05
C -0.6051409993760601 -0.3999452572985642 0.00015271082435825705
C -1.8400372056104104 0.11985874567995683 7.883326322427167e-05
H 2.7211856462541917 0.5142470856698154 1.6131728227345347e-05
H 1.9960844988996997 -1.1964097356208905 0.00012404671717876998
H 0.4726254779671307 1.4820327991515192 -0.00010514060718817848
H -0.4726246590389119 -1.4820337573679272 0.00017842813196452503
H -2.7211849711012936 -0.5142489355409702 7.06123311745355e-05
H -1.9960847808136835 1.1964082746585094 -3.956735811750761e-05
*
