! pbe def2-sv(p) def2/J RI DEFGRID1 loosescf d4 GCP(DFT/SV(P)) printgap
%output
    printlevel normal
end
* xyz 0 1
C 3.6466763408 -1.909757745 -2.8125553039
C 3.9678029265 -1.9146106196 -1.3315465964
O 3.9488579809 -0.5551143885 -0.8195428657
P 2.8768274319 -0.0433750458 0.2151902403
S 3.1045911704 1.8537721292 0.6282910795
O 3.1170065837 -1.0464933886 1.4302521136
C 2.6563787447 -0.7818024358 2.7665194583
C 1.149081992 -0.8833972284 2.8841721553
S 1.0004413572 -0.6289043013 -0.634163534
C 0.18879852 0.9870355136 -0.7263970214
S -1.0680813111 1.2277179532 0.5494140479
P -2.7709382475 0.4628134659 -0.500482441
S -2.5459640345 0.3610153377 -2.4450581689
O -3.9857752295 1.4047199029 -0.1649556311
C -4.6959178539 1.4619169859 1.0967165191
C -3.8186137878 1.9358993598 2.2356812776
O -3.1799445534 -0.8635504144 0.2804794315
C -2.299840629 -1.9680768867 0.5490813497
C -1.9729185381 -2.765077609 -0.6971676494
H 2.6272528476 -1.5710873298 -2.9813424802
H 4.3281065882 -1.2466338791 -3.3382318122
H 3.7541061479 -2.9167833404 -3.2026542374
H 4.9805753096 -2.27465451 -1.1448747006
H 3.2525380099 -2.5197315008 -0.7706838648
H 3.15850345 -1.5411873638 3.3679373148
H 3.0016604812 0.214000074 3.0614111534
H 0.8054070536 -1.8322047616 2.4794233705
H 0.8678273114 -0.8154730446 3.9300686593
H 0.6740674978 -0.0654261776 2.3433140534
H -0.2934973574 1.059916942 -1.703183763
H 0.9406901986 1.7658319256 -0.5866098679
H -5.5041134972 2.165968066 0.8927713478
H -5.1073592899 0.4721566122 1.3017110466
H -4.427748904 2.0547600936 3.1263830099
H -3.0323199568 1.2111436413 2.4389412058
H -3.3570337483 2.888684288 1.9887280999
H -1.3863088284 -1.5830345986 1.011949247
H -2.8551557178 -2.5692471562 1.2713243287
H -2.8867896582 -3.0762940779 -1.1964421895
H -1.3864145743 -2.1636044398 -1.389492875
H -1.3960016695 -3.6414192524 -0.4209940059
*
