  26
        -36.10252950
 C          3.4446830815        0.6923171262       -0.6043924236
 C          3.4453122908       -0.6918142957       -0.6032276911
 C          2.3368532054       -1.3836365733       -0.1442877028
 C          1.2288292688       -0.6968877591        0.3247331829
 C          1.2284729445        0.6970519096        0.3242472404
 C          2.3358316455        1.3839651388       -0.1460757429
 C         -0.0001244359        1.3990105227        0.8299850536
 C         -1.2288090285        0.6968535484        0.3247005361
 C         -2.3367865353        1.3836552603       -0.1443516885
 C         -3.4452774759        0.6918821360       -0.6032111787
 C         -3.4447309295       -0.6922183829       -0.6043406499
 C         -2.3358965481       -1.3839434343       -0.1461025698
 C         -1.2284791339       -0.6970963959        0.3241564566
 C          0.0001290413       -1.3991246549        0.8298033148
 H          4.3059323308        1.2339946844       -0.9662242791
 H          4.3071814969       -1.2333399865       -0.9638070675
 H          2.3347144016       -2.4642564845       -0.1495273227
 H          2.3328498770        2.4645780480       -0.1528916116
 H          0.0002972508        1.3563225385        1.9259679659
 H         -0.0002509152        2.4488137369        0.5350426438
 H         -2.3347077092        2.4642779005       -0.1494091922
 H         -4.3071699731        1.2334232231       -0.9636156875
 H         -4.3060560535       -1.2338236308       -0.9660369423
 H         -2.3330739087       -2.4645612065       -0.1527650780
 H         -0.0001488370       -1.3567428314        1.9257860001
 H          0.0003439666       -2.4488545655        0.5346572347
