! wb97x-v def2-tzvp def2/J RIJCOSX DEFGRID2 scfconv7 GCP(DFT/TZ) printgap
%output
    printlevel normal
end
%cpcm
    smd true
    smdsolvent "water"
end
* xyz 0 1
C 3.05173212980399 -1.6611199513346637 -0.47353789871764146
C 1.707096104714726 -1.0943722831768945 -0.19243295894264506
C 1.4627125110258288 0.06060657648438479 0.48008350741203526
C 0.12154983352375523 0.5167238973628675 0.7693407972123867
O -0.12264173519047959 1.4336484955971835 1.5512139454362524
N -0.9084673050516715 -0.16731128699272768 0.07276865063906256
C -0.7009977809135456 -1.4680966973619969 -0.3764941386250139
O -1.5864027147490276 -2.291698926626643 -0.5909490527184551
N 0.6201301305923613 -1.8160878059593604 -0.593504457577183
C -2.3146358549143806 0.43861103079634967 0.002770387919573075
C -2.2141783330972933 1.9674587424301773 -0.14455381231818934
C -3.040948343461388 -0.05977028394796388 -1.2592907992544058
C -3.0907066513823676 0.056732119455069945 1.2604538223684125
Cl 2.77928004195711 0.995751992311572 1.1313295186243855
H 2.982538835245705 -2.520615933371975 -1.1415579434552996
H 3.525681610547869 -1.9787403060635558 0.46077642368425403
H 3.6953996292302103 -0.9040900643726361 -0.9272305354632211
H 0.7616301972130614 -2.7480430324321032 -0.963774884853146
H -3.1978490938537534 2.3287157267618386 -0.45363461967544283
H -1.9448103406001125 2.47357379708967 0.7785903087827498
H -1.4959844855647355 2.242409629664104 -0.9238927104301242
H -3.906550292280439 0.5889798991611064 -1.4112282042058608
H -3.3976474244019204 -1.0826232705358532 -1.1737695183288506
H -2.4005930597327114 0.02293940125944848 -2.143384976987884
H -3.190641597622404 -1.0294065044932788 1.341995562416023
H -2.5973140151863787 0.43693373599361096 2.1591095658994917
H -4.093317091958728 0.49248735788461695 1.2070928533116982
*
