! wb97x-v def2-tzvp def2/J RIJCOSX DEFGRID2 scfconv7 GCP(DFT/TZ) printgap
%output
    printlevel normal
end
* xyz 0 1
C 2.7780480558259844 -1.3970571165439583 -0.00010816169489135921
C 1.5888587470629192 -0.6946128058011987 -0.00013028631603976542
C 1.588858302043417 0.6946126713438419 -8.206933999096103e-05
C 2.778046775090307 1.3970581331063978 1.810522970449536e-05
C 3.981560756984777 0.6974344044022173 4.831747405613017e-05
C 3.981561151055743 -0.6974318910125699 -2.272050748073238e-05
Cl 5.4712685502531055 -1.6002754999153694 -4.781155680858808e-06
Cl 5.471266805787262 1.60027921144381 0.00018004892579212691
O 0.4121606238512215 1.423854720694317 -0.00013898983852295873
C -0.7512160431868783 0.6962949917166471 -9.273475689898896e-05
C -0.7512157719753185 -0.6962962417761971 -0.00011199879571370365
C -1.9554943860494702 -1.3925706961408824 -3.491165673756903e-05
C -3.170741205974281 -0.6982326843803408 2.5738227256722883e-05
C -3.170741387384537 0.6982306411009164 1.7700956625074972e-05
C -1.9554949005679167 1.3925690306749465 -4.260865434164041e-05
Cl -1.9105789796835047 3.1230544024293194 -5.5816127871146305e-05
Cl -4.662165963156502 1.5749229294672085 7.848718186296247e-05
Cl -4.662165468132722 -1.5749252783272576 0.00011991378024955869
Cl -1.910577905555152 -3.1230560739681668 -2.894634586096308e-05
O 0.4121614660404776 -1.4238556030855947 -0.0002067858620811138
H 2.759955772223594 -2.480454038045772 -0.00015874239606404513
H 2.759952745691726 2.4804549091299077 6.771633620665404e-05
*
