! r2scan-3c def2/J RI DEFGRID2 scfconv6 printgap
%output
    printlevel normal
end
* xyz 0 1
C 5.2256357361 -2.3168927915 -1.4709827011
C 4.5765056155 -1.0737165502 -0.8834283143
O 3.1568188606 -1.0620557982 -1.1232741261
C 2.3805291902 -1.7333778813 -0.2874364259
O 2.7829241885 -2.3941845507 0.6417041943
C 0.9162713039 -1.6273581642 -0.6762337297
C 0.5464750578 -0.1844985072 -0.9993059319
H 1.1275623476 0.1569893329 -1.8633201436
C 0.8923385465 0.7395087449 0.1535521451
O 1.8429446372 0.5400913793 0.8742206338
O 0.0939343646 1.7865762054 0.2218287841
C 0.3663338815 2.7841839939 1.2266019764
C 1.3475620734 3.8178676014 0.7018293055
S -1.1866658036 -0.0141358994 -1.525812386
P -2.187126525 0.147397463 0.3423291206
S -1.2961813962 -0.566761745 1.9390549837
O -2.6603047016 1.6420821069 0.526650731
C -3.3952173572 2.3440165079 -0.4985868042
O -3.587620159 -0.5516971887 0.0068082665
C -3.6868303101 -1.9648082967 -0.2011067434
H 4.8522521254 -3.2049138134 -0.9664212391
H 5.0031722595 -2.3892943399 -2.5319520816
H 6.3000348303 -2.2584422074 -1.3320861921
H 4.9394416445 -0.1671958207 -1.3683015361
H 4.7426012761 -1.0184065417 0.1962682645
H 0.3252246258 -2.0077697426 0.1593876458
H 0.7463292498 -2.2517357222 -1.5547200131
H -0.6081722436 3.221242088 1.446391601
H 0.757210325 2.2779389649 2.1142051866
H 0.9696348165 4.2618761356 -0.2148327278
H 1.4784906269 4.5928697851 1.4495689906
H 2.310386743 3.3520101299 0.5043837174
H -3.522882844 3.3531536384 -0.1160035708
H -4.3592534707 1.8650859365 -0.6560565225
H -2.8227814257 2.3500428171 -1.4259089459
H -4.7503325085 -2.1889777094 -0.185367492
H -3.1744362115 -2.4999843079 0.5999251261
H -3.252546474 -2.22831955 -1.1652225012
*
