! pbe def2-sv(p) def2/J RI DEFGRID1 loosescf d4 GCP(DFT/SV(P)) printgap
%output
    printlevel normal
end
* xyz 0 1
C 2.754638228 1.1263304177 -2.5299778579
C 1.6392367501 1.4360280767 -1.5520926825
O 1.5135000729 0.3676448939 -0.6002671903
P 2.0420912941 0.4512280701 0.9018854605
S 3.3107844839 1.9078368225 1.2180251185
O 2.5485229478 -1.0297633196 1.1834618206
C 3.6186766699 -1.608004096 0.4012958304
C 3.0577905536 -2.5776770157 -0.6198603304
S 0.3648919448 0.4159300871 2.1549198344
C -0.4001019056 -1.1753006023 1.6423789599
S -2.1542891717 -0.9977464624 1.2772776122
P -1.9053445068 -0.3086418149 -0.7262739136
S -0.7631411214 -1.401632296 -1.8737092081
O -1.3793395937 1.1757513563 -0.5899775854
C -2.0994240278 2.2061627328 0.1339522769
C -1.1741804507 3.3949695565 0.2869009934
O -3.3922115496 -0.0786638251 -1.2382320781
C -4.1759901002 -1.1230241486 -1.8440172574
C -4.4824078403 -2.2474741083 -0.876832968
H 3.7082883443 1.0913995773 -2.0067365322
H 2.5738693002 0.1690479379 -3.0119297156
H 2.793505347 1.9062670413 -3.2833967869
H 0.6709250396 1.4925622034 -2.0522370311
H 1.8394858278 2.3698949674 -1.0185121463
H 4.1856975201 -0.8035633013 -0.0771637502
H 4.2566784395 -2.1156902885 1.1271259774
H 3.8721438643 -2.9890695925 -1.2074822607
H 2.5335823008 -3.3868213503 -0.1187523883
H 2.358439529 -2.0729596933 -1.2835564026
H -0.3127096936 -1.8682413537 2.4741192859
H 0.114344979 -1.5448412892 0.7551172516
H -2.9908787189 2.4599437724 -0.4419327558
H -2.3955606415 1.8062036148 1.1081104297
H -0.8671942991 3.7632966328 -0.6879226552
H -1.6942719806 4.1827382639 0.821913198
H -0.2867448548 3.1134129455 0.851250817
H -5.0828964619 -0.610005474 -2.1671548423
H -3.6317797557 -1.5011190555 -2.7147504089
H -3.5693538404 -2.7865537988 -0.629486762
H -4.9151909163 -1.8527149556 0.0389544557
H -5.182290404 -2.935939212 -1.3394497807
*
