! pbe def2-sv(p) def2/J RI DEFGRID1 loosescf d4 GCP(DFT/SV(P)) printgap
%output
    printlevel normal
end
* xyz 0 1
C 3.8120690256 1.7567174381 -1.3465610365
C 4.1167267275 1.176767684 0.0197238746
O 3.3653010279 -0.0190783435 0.2630534342
P 1.771048703 0.0002228024 0.4152229177
S 1.2303227998 1.5419337979 1.5196808189
O 1.5226183288 -1.4363123534 1.0421755674
C 1.9760134688 -1.7031933676 2.3899537296
C 1.5231878057 -3.0972067098 2.7703984342
S 1.1843236842 -0.3787316828 -1.5878198119
C -0.0625154782 -1.6931330869 -1.4771384429
S -1.7838166068 -1.1673559211 -1.7811844722
P -1.9813484742 0.2917875301 -0.2613662796
S -3.7980493835 0.8939258235 0.1343449493
O -0.953300043 1.4422472788 -0.6398326453
C -1.3313351238 2.5615829105 -1.45972049
C -1.4507186538 2.1769781497 -2.9214919371
O -1.1550955606 -0.3299611127 0.9520884369
C -1.8383855452 -0.9935671698 2.0329409723
C -2.3571179389 -2.3579728617 1.6232427351
H 3.9962029355 1.0187267573 -2.1229046662
H 2.7625024701 2.0523432756 -1.387988612
H 4.4316425586 2.6307084197 -1.519047071
H 3.8790254046 1.9006052434 0.8069375615
H 5.1571713222 0.8613291506 0.1052621147
H 3.0657639968 -1.6213072203 2.4016483963
H 1.5595052276 -0.9376654968 3.0535912503
H 0.4388457969 -3.1610952807 2.7713890063
H 1.9211282123 -3.8205744151 2.0644184313
H 1.892633712 -3.3272606239 3.764536102
H 0.016222229 -2.1714506172 -0.5062207231
H 0.1564086617 -2.390498302 -2.2821795371
H -2.2767391798 2.9645942296 -1.0811753699
H -0.5329589851 3.2872541408 -1.2933268706
H -0.5404122822 1.6856035731 -3.2579919551
H -2.2925105874 1.4999152936 -3.0627528331
H -1.6159471078 3.0727597974 -3.5113736485
H -1.0880495953 -1.0561110792 2.8229013576
H -2.6619395071 -0.353600647 2.3650410911
H -1.5510698135 -2.9834360765 1.246583567
H -2.8105614352 -2.8383999461 2.4846439225
H -3.1113872416 -2.2466149422 0.8446138449
*
