! pbe def2-sv(p) def2/J RI DEFGRID1 loosescf d4 GCP(DFT/SV(P)) printgap
%output
    printlevel normal
end
* xyz 0 1
C 0.5999598137 1.7046488226 -0.0307921755
C 1.3951445972 0.4064122543 -0.2511772722
H 1.603495916 0.2932795739 -1.3224230577
C 0.5356053642 -0.7783857093 0.2177777373
H 0.3180723036 -0.6888099792 1.2887837965
C -0.7981163556 -0.7326017564 -0.5448378748
H -0.5964249315 -0.7727409732 -1.6294248063
C -1.4832900256 0.6149698603 -0.258129084
H -2.3899673047 0.6935739484 -0.871455943
O -0.6579082051 1.6742726176 -0.6909478347
O -1.7654408423 0.6973159787 1.0984612547
O -1.6550284141 -1.7800548199 -0.1822385394
O 1.1643685546 -2.0270371726 0.0665094342
O 2.6543592406 0.4478580234 0.365198142
H 1.1311182197 2.5571188128 -0.4532782459
H 0.4496168722 1.8576383318 1.0453033657
H -2.4128825351 1.397684091 1.2687619589
H -1.1081938119 -2.5502439119 0.0458293271
H 1.6044151086 -2.0745922324 -0.7944713227
H 2.5515149267 0.4854713842 1.3272441174
*
