! pbe def2-sv(p) def2/J RI DEFGRID1 loosescf d4 GCP(DFT/SV(P)) printgap
%output
    printlevel normal
end
* xyz 0 1
C 3.290329125 1.8660669944 -1.4043053906
C 1.9759044662 2.1489120324 -0.7106894259
O 1.8829669846 1.553809374 0.6061753106
P 2.0918941928 0.0325004782 0.9766026837
S 1.5007039104 -0.3564129686 2.798587984
O 3.6550693975 -0.1645793949 0.7465970875
C 4.3882896571 -1.2388173047 1.3560148308
C 3.9830818548 -2.5937288793 0.8116672096
S 1.1631871744 -1.0542205196 -0.6167522258
C -0.2234063763 -1.7644675047 0.3079612682
S -1.4235795128 -0.54034645 0.8848316726
P -2.0936449282 0.1432736326 -1.0260586028
S -1.9050844324 -1.1345095158 -2.4956135937
O -1.3070660269 1.490784723 -1.3043785248
C -1.6630828447 2.7899606787 -0.7706098978
C -1.5440882233 2.8548187656 0.7379865909
O -3.5678515442 0.6771880906 -0.7644041091
C -4.722252699 -0.173544303 -0.8843197948
C -4.7426637892 -1.2706994671 0.1596460453
H 3.3704403254 0.8072686389 -1.6426970226
H 3.3311658391 2.4379591742 -2.3265304643
H 4.1233396884 2.1488790076 -0.7662335446
H 1.1389314325 1.782798236 -1.3121559096
H 1.8512741239 3.2139589774 -0.5074861415
H 5.4291829655 -1.0078826646 1.1256208941
H 4.2277896518 -1.1966491032 2.4379788953
H 4.0360431533 -2.5994201967 -0.2741386155
H 4.6481912074 -3.3536770943 1.2089726681
H 2.9634869251 -2.8262854301 1.1159190145
H 0.1420850522 -2.2636672296 1.2038119466
H -0.7052534566 -2.4616169411 -0.3763949496
H -0.9582235145 3.4639293662 -1.2599846902
H -2.6810351466 3.0216441158 -1.0885220358
H -0.5516830928 2.5485294409 1.0632530366
H -1.7233783605 3.8745832086 1.0640838238
H -2.2776794263 2.2002983303 1.2053311756
H -5.5622663361 0.5121621297 -0.7646217317
H -4.7297923417 -0.6023955259 -1.8910397405
H -4.6212623781 -0.8523351773 1.1557399694
H -5.6883500152 -1.8001334712 0.1035936487
H -3.9336141103 -1.9755390681 -0.0264103148
*
