! pbe def2-sv(p) def2/J RI DEFGRID1 loosescf d4 GCP(DFT/SV(P)) printgap
%output
    printlevel normal
end
* xyz 0 1
C 4.225319435 -2.6696122613 1.3053913825
C 4.4061708175 -2.172948144 -0.1197773554
O 3.1322586709 -2.06116879 -0.7867670803
C 2.4522959414 -0.9447228815 -0.6628260847
O 2.8415190599 0.0430858728 -0.0700993004
C 1.1027319535 -1.0295662886 -1.3359968434
C 0.5096992482 0.3647503625 -1.4902270107
H 0.9051628716 0.8849702904 -2.3634495336
C 0.7256974723 1.2236602729 -0.2592767311
O 0.2733565671 0.9177861664 0.8284554635
O 1.3112972551 2.3559595827 -0.5429444626
C 1.4846126565 3.3170134456 0.5194339597
C 0.2457282598 4.1881301419 0.654457857
S -1.3028042137 0.3264908764 -1.7157164858
P -2.0197869372 -0.2356658429 0.189928832
S -1.2586714162 -1.7412342687 1.2058993934
O -2.3341288201 1.136143769 0.9353309324
C -2.317186233 1.2378509502 2.3664787135
O -3.5321206663 -0.567593996 -0.2389387413
C -3.8803135746 -1.7878675714 -0.8994677526
H 3.6447184286 -1.9514291795 1.8810976209
H 3.7022994447 -3.6218949473 1.3068148601
H 5.1976191218 -2.7918835807 1.7709548666
H 4.9660542004 -2.8875164893 -0.7228568115
H 4.8931749064 -1.1938029883 -0.13192328
H 0.4770873195 -1.6426811643 -0.6760952751
H 1.181662921 -1.5401295964 -2.2940226077
H 1.6914893802 2.7731737596 1.4449428538
H 2.3558622505 3.8984005318 0.2191326463
H -0.6189380934 3.5723294314 0.8945410257
H 0.3983762302 4.9095289007 1.4501172239
H 0.0541718243 4.7128976826 -0.2773408019
H -2.5481902175 2.2776938675 2.5836964823
H -1.3271870354 0.9752224527 2.7408820881
H -3.0667332789 0.5781575831 2.8021896033
H -3.5901700702 -1.737905796 -1.9484128838
H -4.9594798733 -1.8761576709 -0.8041559119
H -3.3839346469 -2.6298021561 -0.4128020587
*
