! r2scan-3c def2/J RI DEFGRID2 scfconv6 printgap
%output
    printlevel normal
end
%cpcm
    smd true
    smdsolvent "water"
end
* xyz 0 1
C -1.7099706906 0.3742557826 -0.0338193008
C -0.6031931267 -0.6572382516 0.0549376809
S 1.064733515 0.1004170833 -0.041121675
H -2.6746622148 -0.1275380002 -0.0441094887
H -1.6769884453 1.0488635173 0.8186374004
H -1.6102097774 0.9600092643 -0.9447772363
H -0.6335282751 -1.3448563622 -0.7896756402
H -0.6502892229 -1.2269682149 0.981952578
H 0.9381106475 0.8680550662 1.0344933001
*
