! pbe def2-sv(p) def2/J RI DEFGRID1 loosescf d4 GCP(DFT/SV(P)) printgap
%output
    printlevel normal
end
* xyz 0 1
C 3.4650621214 -0.5561084261 -2.5313054973
C 2.0281629926 -0.1222264483 -2.3393088297
O 1.5305210222 -0.4908990348 -1.0401399754
P 2.0713393279 0.1839086669 0.2883221683
S 2.7777752472 2.005148826 0.1919679532
O 3.1397005503 -0.9163874754 0.7364269509
C 4.1504709582 -0.6452784125 1.7193680237
C 3.5673336399 -0.4982436493 3.1106932349
S 0.4271259964 -0.1438685623 1.5760649418
C -0.0718443967 -1.7960974085 1.0331275171
S -1.0574828307 -1.8428323696 -0.5105536528
P -1.9183516967 0.08270378 -0.5719575926
S -0.8308620677 1.6327544607 -1.0980091478
O -2.6322278295 0.1715109079 0.8531843993
C -2.7086626596 1.3849060326 1.6218162112
C -3.853862829 2.2550749693 1.1450075904
O -3.0552814673 -0.1084400604 -1.6592371587
C -4.3692621541 -0.6828541838 -1.4451772065
C -4.3335799758 -2.1008580203 -0.9172087545
H 3.7704568103 -0.3416092216 -3.5504854653
H 4.1090636474 -0.0070947688 -1.8450459903
H 3.5638068477 -1.6208289188 -2.336900476
H 1.3501196605 -0.6280222425 -3.0293888858
H 1.921995775 0.9618117948 -2.4549527398
H 4.822639361 -1.5016300013 1.6500708234
H 4.6771594334 0.2691795912 1.4281546958
H 4.3741277507 -0.3710305514 3.8252361101
H 2.9206519393 0.3783291374 3.1490336139
H 2.9847867191 -1.3764184772 3.3762314179
H -0.6810611827 -2.1982897596 1.8389189754
H 0.8106029773 -2.4074808048 0.8562202407
H -2.8496355822 1.0467479911 2.6489743856
H -1.7566858517 1.9192483442 1.5388112933
H -3.6914977899 2.5355320883 0.1041782822
H -4.7976655079 1.7229549972 1.2302544457
H -3.8953721842 3.1565128095 1.7480497463
H -4.9156189878 -0.0285343899 -0.762492693
H -4.8188187417 -0.6354653366 -2.4384544731
H -3.7106758647 -2.727556014 -1.5506275123
H -3.9365083302 -2.1189623114 0.0948594445
H -5.3454612744 -2.494591362 -0.908365842
*
