! pbe def2-sv(p) def2/J RI DEFGRID1 loosescf d4 GCP(DFT/SV(P)) printgap
%output
    printlevel normal
end
* xyz 0 1
C 4.7201493313 -1.1949998845 -1.754840077
C 3.9596396815 -1.9686113608 -0.6989414528
O 3.3907214223 -1.1180362617 0.314852449
P 2.4313428697 0.1175423797 0.0419972744
S 3.209119789 1.8027036757 -0.5724965796
O 1.7647983366 0.3322971827 1.4531063449
C 1.1868048573 -0.7380628264 2.2369687638
C 2.1319293798 -1.1448712434 3.3484926732
S 0.9347663317 -0.7298077442 -1.2353842263
C 0.2157733284 0.8442653044 -1.7392579982
S -0.708016989 1.6626771727 -0.4111727195
P -2.3057934412 0.2699180728 -0.3775057638
S -2.9097314612 -0.4422706382 -2.0904126593
O -3.4610961768 1.0431733326 0.3809557701
C -3.2724964538 1.6264960197 1.694515271
C -4.6421611897 1.9532898749 2.2519291363
O -1.7157608196 -0.8032220522 0.6548735925
C -2.1202173072 -2.1867165005 0.6103342763
C -3.5383430071 -2.3609991142 1.1138878903
H 5.1980174037 -1.8902697542 -2.4374691928
H 4.0397136309 -0.5569555034 -2.317066117
H 5.4764833909 -0.5647649095 -1.2930964106
H 4.6206753279 -2.6307017148 -0.1369268646
H 3.1497367573 -2.5469202546 -1.1522850021
H 0.2568153331 -0.3235686162 2.631280491
H 0.9618029548 -1.5803926104 1.5768777642
H 1.6597918153 -1.9080332937 3.9591662678
H 3.0548655511 -1.5370515173 2.9294410716
H 2.3682193957 -0.2835075639 3.966971041
H -0.4560094784 0.6356339501 -2.572025819
H 1.0146295574 1.5293706086 -2.0266127728
H -2.7421679246 0.9074924816 2.323955745
H -2.65902579 2.5240871666 1.5796997661
H -5.2358091596 1.0483389736 2.3453251346
H -4.5288673628 2.413103339 3.2283678005
H -5.1575850445 2.6409811866 1.5878731072
H -2.0279129925 -2.5428202415 -0.4202185191
H -1.3968962333 -2.6986323956 1.2462134838
H -3.8021053756 -3.4135815233 1.0919149177
H -3.6307124734 -1.9880051394 2.1306664463
H -4.2248993867 -1.8113577303 0.4698846702
*
