! pbe def2-sv(p) def2/J RI DEFGRID1 loosescf d4 GCP(DFT/SV(P)) printgap
%output
    printlevel normal
end
* xyz 0 1
C 3.4453526609 -1.502408583 1.7408497085
C 2.9351721305 -2.1710471022 0.4772711816
O 2.6587548731 -1.1683202071 -0.5205472435
C 1.4737630726 -1.1039717555 -1.0769625271
O 0.539573102 -1.8423457324 -0.8197198701
C 1.3952638731 -0.0052137806 -2.115630735
C 0.2088235024 0.9275925361 -1.8644787819
H 0.0858562066 1.5888733655 -2.727947778
C 0.3709068734 1.8006771573 -0.6308883405
O -0.5314079775 1.9654282984 0.1660251329
O 1.5501670273 2.3529437161 -0.5718237593
C 1.8702879423 3.1949067894 0.5582147062
C 2.500517755 2.3732850631 1.6693693578
S -1.3939575608 0.0708387069 -1.7348272595
P -1.5219155685 -0.4942469657 0.3281285436
S -0.1755227989 -0.4360980397 1.7510989188
O -2.9089419977 0.2018124957 0.7583457237
C -3.0642233751 1.4784635617 1.3705257256
O -2.0477112763 -1.9894462821 0.2380399079
C -3.0679541447 -2.4309327118 -0.6700923901
H 2.6588568262 -0.8940108477 2.1818856863
H 3.7377867159 -2.2664500705 2.4530777441
H 4.3017638797 -0.875765118 1.5116440756
H 2.0187857251 -2.7354248347 0.6711049997
H 3.6931363969 -2.8261253055 0.0412037465
H 1.2573074475 -0.4832295681 -3.0870521795
H 2.3223188347 0.5671761589 -2.1051145642
H 2.5692758203 3.9284063151 0.1561083097
H 0.9545335243 3.6814439365 0.9030920261
H 2.7684840018 3.0270276096 2.4922870401
H 1.7962691708 1.6243838194 2.0293394125
H 3.3907061861 1.8689400601 1.304891137
H -2.2695790317 1.6459018563 2.0983617825
H -4.0342973865 1.4495878766 1.8616674162
H -3.0335258 2.2602571416 0.613203323
H -2.6840179678 -2.41611929 -1.6901352242
H -3.9477881957 -1.7942069096 -0.5882848316
H -3.2970206417 -3.4484263181 -0.3633911018
*
