! pbe def2-sv(p) def2/J RI DEFGRID1 loosescf d4 GCP(DFT/SV(P)) printgap
%output
    printlevel normal
end
* xyz 0 1
C 3.8213872026 -2.7864138173 0.6788095173
C 2.3120904658 -2.6748965398 0.5380329538
O 1.9603046906 -1.9159228036 -0.633635302
C 1.9424957526 -0.6028704572 -0.560867016
O 2.1607988265 0.0486906043 0.438739836
C 1.6112881226 0.0298254808 -1.9011863598
C 0.3346585802 0.8691573904 -1.7997489003
H 0.2409154084 1.5023124075 -2.6852564685
C 0.3426424977 1.7463516978 -0.5628290357
O -0.4869226737 1.6241869502 0.3239585778
O 1.2768579467 2.6433216394 -0.6073768277
C 1.4948372905 3.5188846503 0.5230839193
C 2.886509334 3.2720091905 1.0773565966
S -1.1746600921 -0.1599159893 -1.7882311884
P -1.8030892666 -0.3989723026 0.2247516389
S -0.6632115405 -0.96866208 1.7261427265
O -2.9528704343 0.6620799949 0.5103178012
C -2.9667669543 1.5824934865 1.6017767227
O -2.8467322688 -1.5798508818 -0.120880477
C -2.4104703061 -2.915342445 -0.3752722284
H 4.2495978101 -3.2168001119 -0.2223037243
H 4.2551439321 -1.8035164534 0.8474883214
H 4.0526600562 -3.4224139104 1.5266484143
H 1.866222669 -2.1939412477 1.4141885235
H 1.8530204039 -3.6501477607 0.3754704224
H 1.4852737513 -0.7468445957 -2.6532105378
H 2.4386577306 0.6891618807 -2.1699444573
H 1.3924237104 4.5330838017 0.1321998181
H 0.7268931672 3.3220259444 1.2746567027
H 2.979924744 2.2311053897 1.3785523169
H 3.6355215217 3.4897319162 0.3223062652
H 3.0468369101 3.9098171855 1.9400325293
H -2.7558722538 2.5815217014 1.2236094664
H -2.2187504188 1.3043289032 2.346596864
H -3.9648113628 1.5340713252 2.0327196837
H -1.9529005767 -2.9828207704 -1.3628471006
H -3.3054245495 -3.5303940835 -0.326362014
H -1.6943583575 -3.2249795389 0.3895972085
*
