! wb97x-v def2-tzvp def2/J RIJCOSX DEFGRID2 scfconv7 GCP(DFT/TZ) printgap
%output
    printlevel normal
end
%cpcm
    smd true
    smdsolvent "water"
end
* xyz 0 1
C -2.9383619716294733 -0.3718038841370983 -3.622894814105053e-05
C -2.6968902192181354 1.0195548974318058 -2.0915554104658562e-05
C -1.4108780296765333 1.507876443996265 -1.1151714799357197e-06
C -0.30128557290773705 0.6254879361384678 -2.714665935391643e-06
C 1.0325228010961494 1.0983177811430687 -1.503863834401659e-05
C 2.0787575797003157 0.20384223639696747 -3.759918021072288e-05
C 1.8473218763957153 -1.1904578654951044 -1.5355739664640404e-05
C 0.561515979627086 -1.6676584721592973 2.270767404964769e-06
C -0.5476956599176664 -0.7855503030428566 -3.6458743344783974e-06
C -1.882970791840761 -1.254248891645174 -2.250924055447169e-05
O 3.3976600231310106 0.5975665586958943 -7.972450795932129e-05
H -3.958973183561237 -0.7407808629734003 -6.263291546616306e-05
H -3.5362263227904442 1.7081868500392636 -2.483379083232518e-05
H -1.2276375495037266 2.5786521245005387 1.0352852795142563e-05
H 1.2241001085738086 2.168289765823736 -1.9537212452442184e-05
H 2.6975444504556383 -1.8647407052327434 -1.7983707269626994e-05
H 0.38004138793973985 -2.7386037582328924 1.5640909416352146e-05
H -2.0579364305431396 -2.3266280490998787 -3.406697305642805e-05
H 3.4383245913517326 1.5647885429263968 -0.00017204414517539324
*
