! pbe def2-sv(p) def2/J RI DEFGRID1 loosescf d4 GCP(DFT/SV(P)) printgap
%output
    printlevel normal
end
* xyz 0 1
C 1.3027208325 -0.1094519415 -3.2012245892
C 2.3809119538 0.463947417 -2.3026278466
O 2.7761212882 -0.5054549255 -1.3193512393
P 2.4056427821 -0.4294535931 0.2164519434
S 2.5494719624 1.3557026713 1.0284096865
O 3.4765731179 -1.5117822216 0.6515445465
C 3.4143023789 -2.2836193121 1.8636975156
C 3.5091006735 -1.4220854976 3.1073674976
S 0.5417211414 -1.4207687812 0.4517727514
C -0.2590983057 -0.3148406953 1.6707189635
S -2.0372267219 -0.2167947441 1.4193876636
P -2.0122717687 0.6824411286 -0.5133640372
S -0.5826051957 1.9828249141 -0.8342918641
O -3.5167077829 1.1649035105 -0.6872711481
C -4.2693346021 1.919755007 0.2806595764
C -3.5738148177 3.1993515185 0.6948755439
O -1.9299296451 -0.4548693934 -1.6023458155
C -2.8819905599 -1.5408939837 -1.7433121984
C -2.3421562456 -2.8178877374 -1.130548492
H 1.6341426234 -1.055777198 -3.6189450648
H 0.3840781148 -0.2694547063 -2.640004512
H 1.0998882865 0.5931771567 -4.0030971954
H 2.0379398437 1.3780451409 -1.8045612364
H 3.2889128079 0.6839528867 -2.8679934708
H 2.4867517148 -2.864548784 1.8595173926
H 4.2689998551 -2.9572617412 1.7813470023
H 3.5245075019 -2.0577356349 3.9868473107
H 4.4143903855 -0.8206539826 3.0805301011
H 2.6564399239 -0.7469682478 3.1666536674
H 0.1908986771 0.6782025383 1.5747490561
H -0.1213434429 -0.7193325286 2.6704973974
H -5.2102656664 2.1263425588 -0.2324445487
H -4.4495429893 1.2791438276 1.14828671
H -3.3395544228 3.8044529778 -0.1780259812
H -4.2195588924 3.7628886897 1.3605190135
H -2.6427818444 2.9724410272 1.212900113
H -3.8284800955 -1.2465434885 -1.2868510902
H -3.0109464767 -1.6432742572 -2.8220166524
H -1.3651596033 -3.0499903414 -1.5457102815
H -2.2428942287 -2.7197143369 -0.0524438304
H -3.0276292824 -3.6297758541 -1.3515552976
*
