  34
        -65.44225118
 C          5.5154956816        0.2510528995        0.1691951904
 C          4.6147864875       -0.9274248710       -0.1496554464
 O          3.3729632516       -0.5068184310       -0.7332507253
 P          2.2783171294        0.1790175656        0.2112579722
 O          2.2245913533       -0.3662843220        1.5714713798
 O          2.5269194404        1.7337779439        0.1734845370
 C          2.6845292444        2.4447022269       -1.0740474817
 C          1.3636194330        3.0150067807       -1.5557364175
 O          0.9761140500       -0.0225969532       -0.7063950655
 C          0.0580177699       -1.0145240974       -0.4216250016
 C          0.4720483540       -2.2694146827       -0.2597741582
 Cl        -0.5775586292       -3.5563266550        0.1324740655
 C         -1.3285088001       -0.5281796003       -0.3184886608
 C         -2.3599424264       -1.1438120441       -1.0271806028
 C         -3.6581791239       -0.6800502605       -0.9455331077
 C         -3.9329316188        0.4194111640       -0.1457940701
 C         -2.9311868042        1.0533264725        0.5721922120
 C         -1.6338433024        0.5764280707        0.4820687210
 Cl        -0.3836391632        1.3400036709        1.4262465771
 Cl        -5.5494005463        1.0141728745       -0.0315723973
 H          5.0291095721        0.8883519419        0.9063659301
 H          6.4543636394       -0.1114697745        0.5761824079
 H          5.7125191900        0.8315123827       -0.7282558374
 H          4.3928977239       -1.4902832158        0.7617989647
 H          5.0599755507       -1.5847501403       -0.8986010050
 H          3.3956297790        3.2410556587       -0.8444514063
 H          3.1095174301        1.7643113680       -1.8153659947
 H          1.5387740154        3.6193099973       -2.4403732405
 H          0.6715586379        2.2135630716       -1.7999351801
 H          0.9202942804        3.6344201670       -0.7805851055
 H          1.5145842073       -2.5347675335       -0.3345807952
 H         -2.1312854827       -1.9886370674       -1.6555639230
 H         -4.4474752216       -1.1623096866       -1.4974283079
 H         -3.1483489535        1.9016447323        1.1984219766
