  25
        -40.36496677
 C          2.6060096898        3.3009564384       -0.7628705843
 C          2.1998114776        2.4394802210        0.4282841165
 N          0.7669288077        2.2514921262        0.4813629939
 C          0.1449093776        1.1089373977        0.2228840398
 N          0.8495914519        0.0008726349        0.0004156661
 C          0.1470661882       -1.1085875544       -0.2220611346
 N         -1.2134392730       -1.1567887757       -0.2283683953
 C         -1.7789485794       -0.0016523118        0.0000742436
 N         -1.2156872673        1.1545227156        0.2288444464
 Cl        -3.5077386022       -0.0031597480       -0.0003860552
 N          0.7714000000       -2.2499768771       -0.4799415584
 C          2.2047880662       -2.4346878070       -0.4283628565
 C          2.6140181261       -3.2972490681        0.7610123494
 H          2.2924991774        2.8325600684       -1.6920338898
 H          2.1492503796        4.2849029537       -0.6970631657
 H          3.6849340889        3.4182636198       -0.7772128876
 H          2.5189799132        2.9150478088        1.3589032036
 H          2.6479414757        1.4490506181        0.3565823648
 H          0.1773276455        3.0629938905        0.5936319400
 H          0.1835450698       -3.0626286037       -0.5929695893
 H          2.5243402885       -2.9078865517       -1.3601017253
 H          2.6505826230       -1.4432672232       -0.3553252037
 H          2.2992907609       -2.8316814255        1.6912292789
 H          2.1604555554       -4.2825823327        0.6933366466
 H          3.6933456520       -3.4110906788        0.7748483392
  25
        -40.36493128
 C          2.7535619525        3.1128643483        0.8007112263
 C          2.1515127778        2.4837322566       -0.4512308614
 N          0.7225341722        2.3062758884       -0.3183440748
 C          0.1114947942        1.1335800595       -0.2179721030
 N          0.8081035117        0.0049474079       -0.3405135277
 C          0.1135313562       -1.1279536327       -0.2499720680
 N         -1.2311335354       -1.1792406473       -0.0435710590
 C         -1.7900017306       -0.0030459573        0.0590877576
 N         -1.2331998423        1.1765832596       -0.0094743048
 Cl        -3.4981042069       -0.0084655918        0.3257182885
 N          0.7267547929       -2.2962664052       -0.3834000577
 C          2.1567157894       -2.4671197632       -0.5146700850
 C          2.7554268024       -3.1226607553        0.7253146714
 H          3.8251209471        3.2276621359        0.6717894120
 H          2.3179722588        4.0914063300        0.9845673030
 H          2.5708550041        2.4818239347        1.6663267119
 H          2.5788338120        1.4976891810       -0.6301540097
 H          2.3409401164        3.1224937893       -1.3176030279
 H          0.1458041952        3.1221336653       -0.1750264417
 H          0.1515948209       -3.1168233592       -0.2622516433
 H          2.3510176404       -3.0857798634       -1.3943814094
 H          2.5822343059       -1.4762507864       -0.6696215045
 H          2.3227102200       -4.1067769797        0.8846212086
 H          3.8280230970       -3.2304144916        0.5989633908
 H          2.5661734737       -2.5122879322        1.6042780719
  25
        -40.36489322
 C          2.7766939153        2.9704456233       -0.7455324329
 C          2.1490425521        2.4542040019        0.5454865807
 N          0.7177062500        2.2930447739        0.4145874962
 C          0.1048928729        1.1253903023        0.2695454741
 N          0.7994630196       -0.0068709262        0.3635412663
 C          0.1064326194       -1.1358986040        0.2285997158
 N         -1.2359220913       -1.1801756747        0.0070764408
 C         -1.7938153971       -0.0009372165       -0.0616590562
 N         -1.2375428741        1.1757887733        0.0498730344
 Cl        -3.4992647759        0.0030526063       -0.3448968079
 N          0.7208190553       -2.3072161518        0.3318594653
 C          2.1525340772       -2.4706882651        0.4556748230
 C          2.7815717690       -2.9286235284       -0.8565271384
 H          2.3639772232        3.9398947813       -1.0117917087
 H          3.8493333037        3.0720136820       -0.6145990403
 H          2.5877045771        2.2757162786       -1.5596068339
 H          2.3404289237        3.1547961896        1.3612243029
 H          2.5569410982        1.4772679060        0.8030158266
 H          0.1482016975        3.1143413323        0.2742335588
 H          0.1527204953       -3.1235743334        0.1604973884
 H          2.5583657147       -1.5050413044        0.7555743716
 H          2.3452125358       -3.2057884302        1.2400742324
 H          2.5918561469       -2.1989112240       -1.6392240162
 H          3.8543025746       -3.0342821855       -0.7296805315
 H          2.3703772605       -3.8859736956       -1.1654907947
  25
        -40.36485930
 C          2.7867212441        2.8698758639        0.8702969958
 C          2.1471030730        2.4702476136       -0.4559236392
 N          0.7152651976        2.3077920726       -0.3311251558
 C          0.1024510557        1.1353679763       -0.2292344852
 N          0.7967288119        0.0079595628       -0.3705330914
 C          0.1043012681       -1.1256312004       -0.2785446789
 N         -1.2372717614       -1.1790527867       -0.0548348405
 C         -1.7950121931       -0.0036127505        0.0630530390
 N         -1.2391256683        1.1767548959       -0.0027842969
 Cl        -3.4994764821       -0.0114045520        0.3521199481
 N          0.7190993095       -2.2915510503       -0.4313490613
 C          2.1517372146       -2.4456917024       -0.5576692853
 C          2.7883758694       -2.8922569824        0.7549717707
 H          2.3815426106        3.8147406703        1.2225974232
 H          2.5986404123        2.1079471204        1.6221221738
 H          3.8590735450        2.9763401158        0.7410642806
 H          2.5475551505        1.5162179423       -0.7975429948
 H          2.3374330898        3.2365004889       -1.2101445088
 H          0.1480523725        3.1226897581       -0.1505047543
 H          0.1531882495       -3.1142884930       -0.2854693757
 H          2.3461919635       -3.1830494965       -1.3390700028
 H          2.5507790363       -1.4786827860       -0.8625088980
 H          3.8615058669       -2.9904788904        0.6256661743
 H          2.5952186886       -2.1592756730        1.5338248320
 H          2.3850495690       -3.8507800032        1.0706233252
  25
        -40.36483574
 C          2.7891282641        2.8530814101       -0.7580971545
 C          2.1464398092        2.4449226400        0.5641702390
 N          0.7135810941        2.2918530985        0.4380228219
 C          0.1004334030        1.1252701992        0.2826702546
 N          0.7947502982       -0.0070986382        0.3744923277
 C          0.1030031944       -1.1355767481        0.2301092244
 N         -1.2380479768       -1.1792605618        0.0014112228
 C         -1.7961601740        0.0001432658       -0.0633062084
 N         -1.2408243435        1.1765254913        0.0568138700
 Cl        -3.5002682323        0.0049036300       -0.3546179030
 N          0.7186446267       -2.3067249749        0.3312156856
 C          2.1513429000       -2.4628418654        0.4551241479
 C          2.7984277742       -2.8159892948       -0.8807363735
 H          2.3897733287        3.8035056323       -1.1020214938
 H          3.8621132501        2.9515150853       -0.6278601017
 H          2.5961780603        2.0988716208       -1.5165248473
 H          2.3402055850        3.2024868578        1.3259062116
 H          2.5419585609        1.4852859479        0.8959037682
 H          0.1479886606        3.1140819474        0.2884017008
 H          0.1548095719       -3.1224913604        0.1442657251
 H          2.5443605051       -1.5169568373        0.8268781872
 H          2.3442588525       -3.2505538332        1.1859374178
 H          3.8711905218       -2.9179698706       -0.7513653723
 H          2.4017047029       -3.7523239414       -1.2640634802
 H          2.6064751127       -2.0319717974       -1.6085596188
  25
        -40.36481370
 C          2.7983938842        2.8138238603       -0.7566834909
 C          2.1457575282        2.4401385212        0.5709484865
 N          0.7128533219        2.2904874160        0.4405662965
 C          0.0990747422        1.1242567171        0.2846747531
 N          0.7930042001       -0.0081537791        0.3781400378
 C          0.1014018338       -1.1365368059        0.2331738771
 N         -1.2393736898       -1.1802676623        0.0032134373
 C         -1.7971354517       -0.0007647750       -0.0633939988
 N         -1.2417069889        1.1756407933        0.0562270598
 Cl        -3.5007772918        0.0041447512       -0.3574541729
 N          0.7176917633       -2.3074256328        0.3356631994
 C          2.1515137109       -2.4595018625        0.4527107513
 C          2.7991073569       -2.7665445437       -0.8943596395
 H          3.8710511111        2.9101762011       -0.6223074008
 H          2.6062000179        2.0423041478       -1.4977320179
 H          2.4056511781        3.7575159480       -1.1258025516
 H          2.3381149420        3.2143501629        1.3159170060
 H          2.5354304604        1.4867568184        0.9269264007
 H          0.1492006267        3.1131826657        0.2866784731
 H          0.1555467167       -3.1232524603        0.1441723603
 H          2.5404872745       -1.5235061646        0.8528544938
 H          2.3488953379       -3.2684400921        1.1583763565
 H          2.4072916417       -3.6924572862       -1.3069597544
 H          2.6011834928       -1.9606631671       -1.5963188867
 H          3.8726564867       -2.8659752652       -0.7697530948
  25
        -40.36419249
 C          1.6198917501        4.0708804687       -0.6879607078
 C          1.0970020328        3.2564402186        0.4906898374
 N          1.4462463748        1.8597351475        0.3603449598
 C          0.5857981388        0.8716429258        0.1532775156
 N          1.0883304000       -0.3519410552       -0.0347218243
 C          0.2034310786       -1.3302244976       -0.2129807223
 N         -1.1460222446       -1.1409264849       -0.2127049506
 C         -1.4994852275        0.1009266360       -0.0220052010
 N         -0.7425021788        1.1497034282        0.1657214567
 Cl        -3.2012270251        0.4022138650       -0.0141457423
 N          0.6125255549       -2.5733070416       -0.4308824290
 C          1.9894384271       -3.0112907699       -0.3759756444
 C          2.2385787587       -3.9162781784        0.8260701991
 H          1.1936130983        3.7056283775       -1.6186019047
 H          1.3408550578        5.1123728748       -0.5630264692
 H          2.7028746601        4.0046081341       -0.7485896219
 H          0.0101656970        3.3122799960        0.5457892249
 H          1.5240145959        3.6343986523        1.4234592717
 H          2.4244342307        1.6156623639        0.3025536947
 H         -0.1125125620       -3.2706311397       -0.5139937517
 H          2.2177471802       -3.5480084633       -1.3002944386
 H          2.6053927147       -2.1148854574       -0.3171567236
 H          2.0133964629       -3.3887890184        1.7491387152
 H          1.6157193934       -4.8052121855        0.7716308972
 H          3.2799933445       -4.2216355091        0.8432179678
  25
        -40.36416744
 C          1.8035458778        3.9115070625       -0.7791079456
 C          1.0540066246        3.2860633011        0.3926198031
 N          1.3766217287        1.8840789408        0.5343241848
 C          0.5338137479        0.8800820633        0.3316870297
 N          1.0214067915       -0.3604060040        0.4240615067
 C          0.1502313105       -1.3499486927        0.2403310308
 N         -1.1701896218       -1.1559744627       -0.0349136385
 C         -1.5114241534        0.1021948067       -0.0985577221
 N         -0.7662658700        1.1634807297        0.0644228797
 Cl        -3.1757873536        0.4097150356       -0.4480500057
 N          0.5396981357       -2.6141521518        0.3407381730
 C          1.9061004053       -3.0450546218        0.5353763417
 C          2.4549364850       -3.7370576932       -0.7080381424
 H          1.5371888944        3.4131662654       -1.7074972570
 H          1.5406237453        4.9614817837       -0.8604705501
 H          2.8774134557        3.8309711852       -0.6333808118
 H         -0.0230284736        3.3544171316        0.2418892983
 H          1.3200048464        3.7983215832        1.3211490234
 H          2.3409421570        1.6293084136        0.6920892238
 H         -0.1633408838       -3.3116658689        0.1457905062
 H          2.4890590727       -2.1553224430        0.7698246299
 H          1.9334289164       -3.7307210920        1.3860439172
 H          3.4815209291       -4.0425711697       -0.5323128959
 H          1.8653594015       -4.6180724800       -0.9474663471
 H          2.4318005993       -3.0605667335       -1.5581973095
  25
        -40.36395687
 C          2.6339775531        3.3189870758        0.7508613003
 C          2.1392875234        2.5278391642       -0.4552686801
 N          0.7066775187        2.3356329305       -0.4087320807
 C          0.1092439028        1.1660097178       -0.2253515474
 N          0.8332567309        0.0488349191       -0.1721147876
 C          0.1512297338       -1.0839323194       -0.0093193789
 N         -1.2040322030       -1.1499923733        0.0997324836
 C         -1.7881147178        0.0164367115        0.0328234043
 N         -1.2478885198        1.1960117374       -0.1215803852
 Cl        -3.5115084039       -0.0026923996        0.1695041335
 N          0.8106479797       -2.2308180248        0.0529574804
 C          2.2542610982       -2.3245389722       -0.0402800126
 C          2.6909965749       -3.7780744362        0.0083462184
 H          2.3901249032        2.7962413982        1.6718547944
 H          3.7111177607        3.4383020046        0.6914698901
 H          2.1753065395        4.3039043418        0.7771572420
 H          2.5905492972        1.5362323146       -0.4776063647
 H          2.3870412862        3.0600505689       -1.3772533733
 H          0.1091375046        3.1489998037       -0.3986077144
 H          0.2685210343       -3.0709756002        0.1827947678
 H          2.5731295714       -1.8522091282       -0.9739289750
 H          2.6975778214       -1.7583670243        0.7845614069
 H          3.7725252877       -3.8357018395       -0.0634924929
 H          2.3819895710       -4.2380769862        0.9430453647
 H          2.2594251029       -4.3342794821       -0.8192666216
  25
        -40.36276638
 C          2.6306529904        3.8621170963       -0.0381424732
 C          2.2149715339        2.4016816860       -0.0296090699
 N          0.7696068447        2.2905600304       -0.0277743164
 C          0.1321723387        1.1297195632       -0.0138569799
 N          0.8401630619        0.0008122838       -0.0002597942
 C          0.1344134005       -1.1295056571        0.0135654926
 N         -1.2260209420       -1.1798331130        0.0144517221
 C         -1.7906554172       -0.0018004567        0.0001853832
 N         -1.2283683899        1.1773463653       -0.0142878939
 Cl        -3.5198360880       -0.0035214263        0.0004516577
 N          0.7741993086       -2.2890515601        0.0272930401
 C          2.2197969003       -2.3971957898        0.0283549924
 C          2.6385008052       -3.8567515581        0.0389534859
 H          3.7138192353        3.9320941590       -0.0390043370
 H          2.2514574796        4.3616652766       -0.9254452587
 H          2.2521635797        4.3718459029        0.8436421889
 H          2.6051993198        1.8899593779        0.8550210122
 H          2.6044146689        1.8802218051       -0.9089654940
 H          0.2086847067        3.1283311191       -0.0386619263
 H          0.2150485344       -3.1280059107        0.0380466818
 H          2.6084828958       -1.8860974212       -0.8573246943
 H          2.6086455379       -1.8735123419        0.9066396612
 H          3.7218104559       -3.9244882206        0.0393481462
 H          2.2607992223       -4.3557034616        0.9272270502
 H          2.2606096700       -4.3686283441       -0.8418438901
