  25
        -40.36496677
 C          2.6060096898        3.3009564384       -0.7628705843
 C          2.1998114776        2.4394802210        0.4282841165
 N          0.7669288077        2.2514921262        0.4813629939
 C          0.1449093776        1.1089373977        0.2228840398
 N          0.8495914519        0.0008726349        0.0004156661
 C          0.1470661882       -1.1085875544       -0.2220611346
 N         -1.2134392730       -1.1567887757       -0.2283683953
 C         -1.7789485794       -0.0016523118        0.0000742436
 N         -1.2156872673        1.1545227156        0.2288444464
 Cl        -3.5077386022       -0.0031597480       -0.0003860552
 N          0.7714000000       -2.2499768771       -0.4799415584
 C          2.2047880662       -2.4346878070       -0.4283628565
 C          2.6140181261       -3.2972490681        0.7610123494
 H          2.2924991774        2.8325600684       -1.6920338898
 H          2.1492503796        4.2849029537       -0.6970631657
 H          3.6849340889        3.4182636198       -0.7772128876
 H          2.5189799132        2.9150478088        1.3589032036
 H          2.6479414757        1.4490506181        0.3565823648
 H          0.1773276455        3.0629938905        0.5936319400
 H          0.1835450698       -3.0626286037       -0.5929695893
 H          2.5243402885       -2.9078865517       -1.3601017253
 H          2.6505826230       -1.4432672232       -0.3553252037
 H          2.2992907609       -2.8316814255        1.6912292789
 H          2.1604555554       -4.2825823327        0.6933366466
 H          3.6933456520       -3.4110906788        0.7748483392
