! pbe def2-sv(p) def2/J RI DEFGRID1 loosescf d4 GCP(DFT/SV(P)) printgap
%output
    printlevel normal
end
* xyz 0 1
C 5.7959472252 -0.2657653385 -0.8531544495
C 4.3354520069 -0.6305789445 -1.0261816069
O 3.5503098124 0.3161202488 -0.2755208639
P 1.9881597833 0.4695566404 -0.5370156241
S 1.537676316 0.7355789011 -2.4252207662
O 1.6309566474 1.6813393983 0.4027668285
C 2.3345007269 2.0234880955 1.625745354
C 2.3426971556 0.8965337704 2.6368983679
S 1.1852614832 -1.3093093187 0.3416166048
C 0.0609404792 -1.8631182705 -0.9721892543
S -1.6215152989 -2.1914556662 -0.3833316659
P -2.1420206785 -0.2782956293 0.3153334618
S -1.4426953577 1.3136512043 -0.6111951928
O -1.7049881518 -0.4272863878 1.8304095955
C -1.582619572 0.7064165836 2.7121943942
C -2.9283058021 1.310980545 3.0542531879
O -3.7269849457 -0.3372821622 0.4198441009
C -4.5902669567 0.0593914828 -0.658442919
C -4.4782003688 -0.8668626614 -1.8521657474
H 5.9786662632 0.7340684249 -1.236835641
H 6.0663478706 -0.2958722393 0.198242838
H 6.4058986749 -0.9757343668 -1.4017504159
H 4.1239137478 -1.6306164432 -0.6376588495
H 4.0300305675 -0.5810210854 -2.0766843974
H 3.3514317907 2.3156339892 1.3582575947
H 1.7820099771 2.8913714615 1.9901497503
H 2.909234809 0.0492930739 2.2552898544
H 2.8060027233 1.2494907111 3.5529628498
H 1.3300259453 0.5659237505 2.8517799184
H 0.421313451 -2.8110762239 -1.3637491537
H 0.047018363 -1.0961308754 -1.7528772284
H -1.0908597667 0.2957439375 3.5956611476
H -0.9393335997 1.4507447028 2.2296306308
H -3.3668588637 1.7681727177 2.1685244744
H -3.6008528669 0.5406811207 3.42187859
H -2.7962100025 2.0724289419 3.8167187958
H -5.5879504562 0.0313934953 -0.2182946928
H -4.3359915819 1.0852359278 -0.9447481174
H -3.4943583326 -0.7662002032 -2.3096943594
H -4.6168033756 -1.8999903112 -1.5436225626
H -5.2336846608 -0.6025103706 -2.5851702399
*
