  10
        -13.83720558
 C         -1.8442003926       -0.8434793398        0.4577481006
 S         -0.9005259577        0.4171661863       -0.4695558154
 S          0.8994707508        0.4148674674        0.4710722337
 C          1.8462876966       -0.8397892809       -0.4608768643
 H         -2.8496880231       -0.8115111628        0.0545300568
 H         -1.8439891697       -0.5810103249        1.5099128517
 H         -1.4009136170       -1.8199796310        0.2954173625
 H          2.8461344522       -0.8205242988       -0.0432702548
 H          1.8630019247       -0.5624765393       -1.5091695354
 H          1.3941503062       -1.8152790036       -0.3183783428
  10
        -13.83613249
 C         -1.8548925448       -0.8329057878        0.4634549284
 S         -0.9010602141        0.4150274936       -0.4708935116
 S          0.8955192429        0.4085912451        0.4726942757
 C          1.8682165804       -0.8325320613       -0.4656147180
 H         -1.3831815426       -1.8033251511        0.3542851009
 H         -2.8438280135       -0.8369245565        0.0199616418
 H         -1.9021876913       -0.5334425464        1.5045648154
 H          2.2481818627       -1.5585558240        0.2439261389
 H          2.6825422890       -0.3184583382       -0.9636614486
 H          1.2159727255       -1.3048512892       -1.1906261718
