! pbe def2-sv(p) def2/J RI DEFGRID1 loosescf d4 GCP(DFT/SV(P)) printgap
%output
    printlevel normal
end
* xyz 0 1
C 5.7732337817 -0.0850640506 0.1891374098
C 4.4539112452 -0.7367369899 -0.1739835422
O 3.3900285728 0.0544892857 0.3902689727
P 1.9365095378 0.1097550453 -0.2555468911
S 1.9553207184 0.2067042216 -2.2200836797
O 1.2732557677 1.2495119689 0.6146780133
C 1.8519904381 2.5511191999 0.8506296493
C 2.1269140303 3.3024040252 -0.4345792802
S 1.0007388699 -1.6079085233 0.5167778664
C -0.1888654346 -1.981271944 -0.8154176639
S -1.8985410283 -1.9576614332 -0.2512039925
P -2.0460273696 0.1243266894 0.1777289035
S -1.3275432339 1.2891430984 -1.2257691757
O -1.3272180135 0.4449672996 1.5434178783
C -1.7976196423 0.1041331439 2.8721488053
C -1.8110038151 -1.3886726669 3.1293529113
O -3.5732287809 0.2982617133 0.5745389288
C -4.6895227469 -0.2313072537 -0.1656851633
C -4.7110135815 0.2316820896 -1.6069063686
H 5.8329805593 0.9100673464 -0.2431757858
H 5.864716282 -0.007785681 1.2687019369
H 6.5854351019 -0.6910487532 -0.1984423472
H 4.3775234342 -1.7435805359 0.2434741144
H 4.3148341707 -0.7842871948 -1.2595635521
H 1.0931950721 3.0561641905 1.4512718909
H 2.7661649392 2.4153414842 1.4330525377
H 2.8952035367 2.7908001519 -1.0134361773
H 1.2217069756 3.3535348563 -1.037805679
H 2.4638095442 4.3079842917 -0.2036613195
H 9.51201e-05 -2.9933554338 -1.1637984666
H -0.04510548 -1.2535996875 -1.619950095
H -1.0818386284 0.6122620049 3.5205133844
H -2.7912007818 0.5367076198 3.0016171739
H -2.57750987 -1.8765925755 2.5317710168
H -0.8440729628 -1.823669708 2.8851644649
H -2.0222202115 -1.5592416067 4.1805205606
H -4.6475789115 -1.3224596597 -0.1116602766
H -5.5574060878 0.1368626738 0.3843764707
H -4.689130947 1.3177619997 -1.6581336586
H -3.8414788386 -0.1523105112 -2.1384983097
H -5.6111595381 -0.1342040166 -2.0900002358
*
