! r2scan-3c def2/J RI DEFGRID2 scfconv6 printgap
%output
    printlevel normal
end
* xyz 0 1
C 3.9065795448 -1.2119493168 -2.7541970816
C 4.2608226189 -1.5496464458 -1.3203698287
O 3.0950655708 -1.6457526558 -0.4834199402
P 2.2001342845 -0.3822840784 -0.1143649826
S 3.2209706642 1.2585800428 0.2386499687
O 1.354153764 -0.9586747607 1.0933136938
C 1.7862582051 -0.8634733201 2.4683349884
C 0.5598787881 -0.7240499302 3.3469285672
S 0.7184944026 -0.3165876333 -1.6074809742
C 0.1593033804 1.37895904 -1.2850389593
S -0.4953974054 1.6095705962 0.3858622548
P -2.2029948546 0.3806094649 0.1827765624
S -3.0469853405 0.2934486018 -1.5890805701
O -3.1186875826 0.8458648441 1.3976846534
C -3.5242460937 2.196924032 1.6845762113
C -4.1351289788 2.9008327298 0.4906263169
O -1.7162956796 -1.0152281549 0.7469434306
C -2.2517052785 -2.2908760705 0.3369310388
C -1.2000126727 -3.0926246576 -0.4048592246
H 4.799960956 -1.2677347021 -3.3678471846
H 3.1622244149 -1.9073958805 -3.1339367664
H 3.5027716493 -0.2018233163 -2.8100340452
H 4.92543119 -0.7888321794 -0.8986152101
H 4.723143422 -2.5342681067 -1.2394921932
H 2.3451274817 -1.7728888273 2.701314955
H 2.448725533 0.0035287575 2.5689936309
H 0.0235455826 0.1891613769 3.1002177114
H -0.1063109452 -1.5681167041 3.1929938986
H 0.8683145561 -0.6892134658 4.3867445819
H -0.620107612 1.5863199275 -2.0181331018
H 0.9969550636 2.0684382705 -1.3825598484
H -4.2493877309 2.0796168925 2.4919909041
H -2.6498097051 2.743553356 2.0489197331
H -4.9550775439 2.3146838918 0.0823201003
H -4.5066633194 3.8729869315 0.7983811346
H -3.3875753853 3.0381093173 -0.2893809979
H -2.5525485903 -2.786901894 1.2616567581
H -3.1312226334 -2.1269249611 -0.2933927343
H -0.2757340208 -3.1144175362 0.1672940497
H -1.5605143616 -4.1061460438 -0.5482592872
H -0.9978335987 -2.6451426638 -1.3753184792
*
