  16
        -21.78748124
 C          2.6938819490        0.4086576703       -0.0779757581
 C          1.6603703303       -0.6825269554        0.1862930830
 O          0.3741238234       -0.3975080423       -0.3356637693
 C         -0.3297164328        0.6310309946        0.3381026879
 C         -1.7552887978        0.6507515881       -0.2123245878
 O         -2.4682779531       -0.5197127945        0.1085033139
 H          2.7076789959        0.6556494222       -1.1364020350
 H          2.4698431026        1.3072262109        0.4910039404
 H          3.6750621920        0.0484347632        0.2150255941
 H          1.5831463382       -0.8759715070        1.2660764221
 H          1.9540200346       -1.6054893130       -0.3188794726
 H         -0.3472137176        0.4253592919        1.4177853448
 H          0.1386359470        1.6073605771        0.1651145002
 H         -1.7119588669        0.7848979947       -1.3005339086
 H         -2.3104001433        1.4781357206        0.2323587805
 H         -1.9585129795       -1.2768022488       -0.2152867973
