! r2scan-3c def2/J RI DEFGRID2 scfconv6 printgap
%output
    printlevel normal
end
%cpcm
    smd true
    smdsolvent "water"
end
* xyz 0 1
C 5.6165528987 0.571192791 -0.749656608
C 4.3151293021 1.3038340443 -1.0119179396
O 3.2453254249 0.3710494487 -1.2762753689
P 2.2507124199 -0.1287528225 -0.1408615835
S 3.0815281256 -0.8561086965 1.4822221802
O 1.3348504675 -1.1210788541 -0.9539400949
C 1.5806874668 -2.5438798399 -1.0419100968
C 0.3434274928 -3.2912759498 -0.5886599956
S 0.9797188808 1.5287366471 0.1330409959
C 0.2865151336 1.0206550878 1.7292414141
S -0.8431423298 -0.3955036058 1.6151812353
P -2.1564133835 0.2923166525 0.091165716
S -1.7658242504 -0.1333189319 -1.7862201444
O -2.2192933248 1.8244000781 0.4816255598
C -2.5945534629 2.8353520977 -0.4769829319
C -4.0675177988 2.7589983354 -0.8182751259
O -3.5840691997 -0.2261424156 0.5659327261
C -4.1003257134 -1.5131783705 0.1958830863
C -3.4441096832 -2.6223526283 0.9927991815
H 5.5357692184 -0.0298967832 0.1533368914
H 5.8518043069 -0.0813381462 -1.5857716703
H 6.4143126576 1.2957743497 -0.6225339575
H 4.3757032131 1.9142259175 -1.9148319932
H 4.0412850645 1.9357052607 -0.162236445
H 1.8090953779 -2.7454825113 -2.0898423105
H 2.4449546758 -2.7957894816 -0.4187850391
H 0.4875175635 -4.3545258977 -0.7493626424
H 0.1624093486 -3.1079083623 0.468660324
H -0.5165053237 -2.9526346542 -1.1621199269
H -0.2420464492 1.8799883257 2.1324279962
H 1.0949759671 0.7014968677 2.3893425564
H -2.3378329431 3.7732443806 0.017070608
H -1.9793274942 2.7093351964 -1.3739073998
H -4.2768532669 1.826656316 -1.3411175121
H -4.6651363365 2.7954139294 0.0886136348
H -4.331798924 3.5921687525 -1.4618099874
H -5.1688562419 -1.4440710205 0.4041757309
H -3.9389958033 -1.6564554475 -0.878379723
H -3.5717624498 -2.4480844118 2.0577216193
H -3.8890049088 -3.5751268476 0.7249210338
H -2.3772104479 -2.6534628116 0.7728413358
*
