  10
        -13.53982018
 C         -1.2662609136        0.7023712821       -0.0026031096
 C          0.0000047763       -0.1031621232        0.0000585093
 O          0.0001259686       -1.3197712551       -0.0000136944
 C          1.2661244572        0.7025862544        0.0025975636
 H         -1.4011760750        1.1352354384        0.9866462008
 H         -1.1974476521        1.5149416424       -0.7193443187
 H         -2.1190360027        0.0679261285       -0.2274692578
 H          1.4018244590        1.1337062498       -0.9872875516
 H          2.1188130865        0.0686306885        0.2292142476
 H          1.1965917554        1.5164209049        0.7178269387
  10
        -13.53922602
 C         -1.2683820958        0.7009557822       -0.0025152548
 C          0.0040302769       -0.0992238131       -0.0011027176
 O         -0.0000389174       -1.3164095524        0.0001727972
 C          1.2704593501        0.7022644587        0.0026988098
 H         -1.8322445517        0.4646747209        0.8978548013
 H         -1.0746697246        1.7664880035       -0.0486486389
 H         -1.8804278901        0.3941825985       -0.8479000493
 H          1.2981046556        1.3280903780       -0.8861817049
 H          2.1382129560        0.0486322488        0.0210027712
 H          1.2788642721        1.3552040519        0.8720827950
