! pbe def2-sv(p) def2/J RI DEFGRID1 loosescf d4 GCP(DFT/SV(P)) printgap
%output
    printlevel normal
end
* xyz 0 1
C 3.2654752521 -2.8947275673 1.0077784833
C 1.9000506522 -2.3335135842 0.6661699706
O 1.9015480343 -0.8992293291 0.7490938342
P 2.5004720337 0.0337497281 -0.4020230958
S 2.7894077119 -0.860959234 -2.1161499609
O 3.8424801353 0.6641128578 0.1502427229
C 3.9393353071 1.6889116913 1.1679138248
C 3.3941694986 1.2324817764 2.5045362625
S 1.1313554445 1.6489513318 -0.3888187513
C -0.0774235052 0.8720431989 -1.4931163078
S -0.8869299165 -0.578534249 -0.785043669
P -2.7504660876 0.2787683397 -0.1558702374
S -2.9733950672 2.1803607641 -0.5646976779
O -2.9397142894 -0.1345406005 1.369468552
C -2.5024622282 0.6829042711 2.4685342451
C -0.9949645978 0.8164665116 2.5255260762
O -3.8521949362 -0.5984743648 -0.867371752
C -4.2963497588 -1.9075551296 -0.4354714172
C -3.1754778623 -2.9245389271 -0.4149116777
H 3.5620679085 -2.5884759735 2.0071876851
H 3.2357569018 -3.9783224989 0.955966917
H 3.9999909871 -2.5249420262 0.292734133
H 1.1400414356 -2.6473384596 1.3826284047
H 1.5988883553 -2.630378785 -0.3432642228
H 5.0101393339 1.8936544428 1.215097402
H 3.408145361 2.575915646 0.8124065986
H 3.5540295314 2.0169794769 3.2375170935
H 2.3280547993 1.0320572715 2.4249635269
H 3.9022577279 0.3286324521 2.8298735516
H 0.4365590379 0.5437924619 -2.3961405414
H -0.8298874222 1.6323835931 -1.7114920722
H -2.9699409198 1.6678089909 2.37564582
H -2.8948316347 0.1654460564 3.345476113
H -0.643351477 1.416144652 1.6868399035
H -0.713679501 1.313746181 3.4483898561
H -0.5220754149 -0.162156706 2.4847732225
H -4.7478602773 -1.8041578654 0.5530570732
H -5.0613391367 -2.1648485876 -1.1695488495
H -3.5809291993 -3.8946456738 -0.1448593271
H -2.7028034661 -2.9928043451 -1.3914209186
H -2.4225505161 -2.6374687116 0.3171716892
*
