! pbe def2-sv(p) def2/J RI DEFGRID1 loosescf d4 GCP(DFT/SV(P)) printgap
%output
    printlevel normal
end
* xyz 0 1
C 4.2734582891 -1.8345767332 -1.6845578768
C 4.4128741641 -0.5659471158 -0.8665691531
O 3.3572205367 0.3733881794 -1.206470197
P 2.1607848702 0.746813835 -0.2528224097
S 1.1062752017 2.185451658 -1.0501978323
O 2.9178648533 1.0796191744 1.1014062832
C 2.3009158521 1.5945884622 2.2959153938
C 2.0261909047 0.4769785488 3.2821481163
S 1.2026712639 -1.1224376247 0.1428388835
C 0.4528903527 -1.3316038017 -1.4865849152
S -1.1014775146 -0.4026662137 -1.7652026738
P -1.920609149 -0.2786180888 0.211113602
S -1.1580646359 0.9587118116 1.5196565067
O -1.9563091608 -1.7488404262 0.7616331173
C -2.594347452 -2.8616098927 0.0814688871
C -3.9924778876 -3.0824570795 0.6204548523
O -3.4368854672 0.0188181253 -0.1669462475
C -3.85889676 1.306588997 -0.660988927
C -4.5228473514 2.1049390455 0.4436981652
H 4.20900872 -1.5903846959 -2.7413443628
H 5.1464122955 -2.4573188869 -1.5164670229
H 3.3842018814 -2.3858306259 -1.3897100743
H 5.3368703311 -0.0381685702 -1.106952641
H 4.37723141 -0.7731890801 0.2040703199
H 3.0268138108 2.306180853 2.6935907606
H 1.379075187 2.1216571139 2.0320058972
H 2.9376597761 -0.0779463138 3.4853450372
H 1.6490940454 0.9073710623 4.2039883272
H 1.2738220749 -0.2022571058 2.886025659
H 0.2424472257 -2.3927906926 -1.5971156324
H 1.1434433745 -0.9847798508 -2.2552035833
H -2.6147633064 -2.6587503097 -0.9926683366
H -1.9461876136 -3.713710385 0.2937945608
H -3.9576380512 -3.2309361251 1.6961296718
H -4.6184434999 -2.220392265 0.4062131975
H -4.4195620471 -3.9624263917 0.1495582308
H -2.9954908641 1.8437840375 -1.0654273968
H -4.5572973499 1.0848804379 -1.4703327419
H -5.3585786902 1.5479826335 0.8575297255
H -3.8077867953 2.3081205471 1.2383444002
H -4.8798082996 3.0464891178 0.0390811641
*
