! pbe def2-sv(p) def2/J RI DEFGRID1 loosescf d4 GCP(DFT/SV(P)) printgap
%output
    printlevel normal
end
* xyz 0 1
C 4.1926561449 -1.7864829626 1.2446037979
C 2.794067443 -2.0100611932 0.7062389294
O 2.5847853592 -1.0912700358 -0.3842601675
C 1.4109384569 -1.0664649924 -0.960923027
O 0.4767491183 -1.7859270964 -0.6482232344
C 1.3222246222 -0.0389045992 -2.0656831154
C 0.1725714381 0.9289639734 -1.7962419943
H 0.0579437311 1.6120103138 -2.6441623563
C 0.3408368854 1.7749938355 -0.5424378026
O -0.5968869663 2.3243903796 -0.0014467281
O 1.5883821296 1.8622903369 -0.1678458824
C 1.8930213694 2.6180417029 1.0224231706
C 3.3909953726 2.8427290877 1.056953818
S -1.4618215817 0.114188348 -1.7069981551
P -1.6430040079 -0.5176962845 0.3224478601
S -0.3546589118 -0.1981627182 1.7633976542
O -3.0910774564 0.0959691398 0.6800422223
C -3.3344001444 1.4733046027 0.9582711117
O -2.0557203811 -2.040888775 0.2803219911
C -2.9861521038 -2.5838402012 -0.6729979024
H 4.9221080338 -1.9226778332 0.4520142073
H 4.2820895023 -0.7798782572 1.6414109864
H 4.3859901269 -2.4987688819 2.0395137579
H 2.0273530593 -1.8233248018 1.4654034203
H 2.6605611459 -3.027371979 0.3251453191
H 1.1234286415 -0.5597925392 -3.003589536
H 2.263136495 0.5060748853 -2.1235779264
H 1.3314860668 3.5563864685 0.9898653317
H 1.5437657622 2.0328722395 1.8798778226
H 3.702146008 3.4386964512 0.2043278364
H 3.6516764716 3.3620049847 1.9727637216
H 3.9063081594 1.8874818927 1.0265629443
H -3.2454318983 2.0625873494 0.0458870354
H -2.6181845188 1.8435610762 1.6929571337
H -4.3465763697 1.5157269106 1.3524779071
H -3.1185726846 -3.6206045368 -0.3747655524
H -2.5623187126 -2.5236082429 -1.6751716621
H -3.9298684773 -2.0424369037 -0.6276733448
*
