! pbe def2-sv(p) def2/J RI DEFGRID1 loosescf d4 GCP(DFT/SV(P)) printgap
%output
    printlevel normal
end
* xyz 0 1
C 2.5292467795 -3.9057920143 -0.1445625439
C 1.5455798705 -2.8704083588 0.3736465049
O 1.322297716 -1.8579884089 -0.6235967472
C 2.0676622675 -0.7634164005 -0.6004129634
O 2.872236212 -0.4898865357 0.2613728912
C 1.8030492864 0.1092846138 -1.814310614
C 0.4922895325 0.8908224516 -1.700942842
H 0.3698421028 1.5038389058 -2.5998459273
C 0.4413001836 1.8074845636 -0.4951199148
O -0.538492271 1.866416481 0.225743483
O 1.5356123998 2.4943927465 -0.3428207789
C 1.6350671704 3.3904236709 0.7849237966
C 1.0017506535 4.7346192332 0.4675240027
S -0.9804194301 -0.1743373559 -1.6700114817
P -1.3807040791 -0.4893164355 0.4113928959
S -0.1537728881 -0.3815457996 1.9435547432
O -2.8173227498 0.1826816837 0.6350108553
C -3.0907544952 1.4287228523 1.27134846
O -1.8290748636 -2.018460642 0.339408188
C -2.8330970618 -2.5164952822 -0.560921742
H 3.5009470978 -3.4462105004 -0.3096384963
H 2.632468606 -4.6958232049 0.5916581583
H 2.1688632719 -4.3275466281 -1.0785978484
H 1.9127125997 -2.3893083218 1.2850164336
H 0.5625660342 -3.3044745992 0.5630482289
H 1.7451009217 -0.5323671116 -2.6933773147
H 2.6271718499 0.8175566624 -1.9052180148
H 1.1559911188 2.9166638909 1.6466030079
H 2.707627935 3.4796637752 0.9558971367
H 1.1543186674 5.404420587 1.3070571863
H 1.4584956 5.1625806648 -0.4203777603
H -0.0664513056 4.6183801805 0.3004750031
H -2.3726285168 1.6093088213 2.0716224237
H -4.0970299278 1.336751064 1.6741696535
H -3.0358083288 2.2345961003 0.5416882892
H -3.7638829156 -1.9695227434 -0.4231477706
H -2.9588004257 -3.5629217227 -0.2943951297
H -2.4894959737 -2.4199242967 -1.5908787524
*
