! pbe def2-sv(p) def2/J RI DEFGRID1 loosescf d4 GCP(DFT/SV(P)) printgap
%output
    printlevel normal
end
* xyz 0 1
C 3.8355802868 -1.065744809 1.8443406178
C 2.7999827796 -1.9624769409 1.1854613402
O 2.436282719 -1.4590913391 -0.1137627603
C 1.5112182123 -0.5391952286 -0.1944911613
O 0.9386130584 -0.0323756732 0.7576046408
C 1.2437609376 -0.108240695 -1.6187473683
C 0.2037562695 1.0018370125 -1.6221569423
H 0.2224590834 1.5411514504 -2.5732875994
C 0.4456037066 2.0039095352 -0.4996673126
O -0.4314454742 2.4823088537 0.1831926491
O 1.7135231144 2.3537673353 -0.4421930225
C 2.0907083838 3.2984457702 0.5800908462
C 3.5654452917 3.6056776181 0.414757552
S -1.5215850546 0.4187126489 -1.5327768164
P -1.7050761862 -0.9455292894 0.0856005336
S -0.6657614462 -2.6066904731 0.0486408284
O -1.6980481861 -0.2304012804 1.4918991311
C -2.5674534523 0.8651163815 1.8395241507
O -3.2751446694 -1.2315842689 -0.0715227485
C -3.7895385112 -2.0105700771 -1.1567997002
H 4.138736441 -1.5042039259 2.7891824619
H 4.7038213202 -0.96367608 1.1993411823
H 3.4112190093 -0.0818350475 2.0328548823
H 1.8940151701 -2.0360092322 1.7947703934
H 3.1957746623 -2.9579769396 0.9858568288
H 0.912556617 -0.9708074887 -2.1997437992
H 2.1821751294 0.2513415927 -2.044088638
H 1.4699659337 4.1926393914 0.4671205342
H 1.869596126 2.8464152501 1.5527333693
H 3.8671456944 4.3208058424 1.1726082522
H 4.1519110243 2.6983545672 0.5257771044
H 3.7494571978 4.0255560261 -0.5694052376
H -2.5296870842 0.918227819 2.924399698
H -3.5800790696 0.6664164598 1.4947322489
H -2.1811607847 1.7834872742 1.3978376422
H -3.1744580256 -2.900249057 -1.3015288203
H -3.8023291098 -1.4125844566 -2.0670198987
H -4.7983967366 -2.2900183085 -0.8638286811
*
