  17
        -22.02390302
 C         -1.8426988815       -0.0002722605        0.0818136401
 C         -1.0585037184        1.2493352522       -0.3005980504
 C          0.3072374445        1.2644916044        0.3955362452
 C          1.0665496958        0.0000797796        0.1001603324
 O          2.1990670586        0.0000425772       -0.3440433549
 C          0.3073305377       -1.2643089031        0.3959803629
 C         -1.0579593415       -1.2494084585       -0.3010101617
 H         -2.8053967961       -0.0003465223       -0.4309906724
 H         -2.0319876682       -0.0005147792        1.1567443256
 H         -0.9083745969        1.2703205106       -1.3821305833
 H         -1.6115746006        2.1465917172       -0.0209291059
 H          0.8989202429        2.1247005609        0.0791529884
 H          0.1584954091        1.3204442333        1.4758292899
 H          0.8992607481       -2.1246313817        0.0804640921
 H          0.1578537262       -1.3195637619        1.4762208627
 H         -0.9071692080       -1.2696428891       -1.3824606591
 H         -1.6108803668       -2.1470446288       -0.0222268354
  17
        -22.02006664
 C         -1.9184235924       -0.0001944005       -0.0014582549
 C         -1.0588377378        1.2141050079        0.3727361146
 C          0.2748436619        1.2061733921       -0.3697336008
 C          1.0917007997        0.0000471284        0.0008863308
 O          2.3093982828        0.0004459498        0.0030247912
 C          0.2743879419       -1.2063875256        0.3693195929
 C         -1.0582461469       -1.2142205311       -0.3750064879
 H         -2.5640586890        0.2473476380       -0.8446209874
 H         -2.5646427125       -0.2480823305        0.8411771579
 H         -1.5966747494        2.1343993617        0.1450851650
 H         -0.8564299208        1.2116280590        1.4452064420
 H          0.1003718290        1.1580410292       -1.4480058429
 H          0.8552321588        2.1088218306       -0.1731038970
 H          0.8551251202       -2.1088527614        0.1731747043
 H          0.0985116230       -1.1586853596        1.4473879902
 H         -0.8546627203       -1.2114404599       -1.4472324685
 H         -1.5963414180       -2.1345725195       -0.1482788602
  17
        -22.01933031
 C         -1.6926616142       -0.0519806822       -0.5298890618
 C         -1.0863633552        1.3052214000       -0.1529720498
 C          0.2778034843        1.1645757335        0.5458165804
 C          1.0560775216       -0.0144148962        0.0388226592
 O          2.1937382608        0.0747567559       -0.3866651247
 C          0.3295534784       -1.3291969476        0.1277440464
 C         -1.1639491870       -1.1529739517        0.3842494223
 H         -1.4260423132       -0.3027220930       -1.5588281001
 H         -2.7797472671        0.0004240297       -0.4728463184
 H         -0.9657259541        1.9110152995       -1.0514359320
 H         -1.7573717800        1.8426936288        0.5175051860
 H          0.8686307768        2.0735295792        0.4300561992
 H          0.1202970536        0.9898103710        1.6123152576
 H          0.5063910427       -1.8737413780       -0.8027493082
 H          0.8025134369       -1.9109619180        0.9227933626
 H         -1.6807420166       -2.0918725011        0.1846090361
 H         -1.3466462059       -0.8861804215        1.4256441637
  17
        -22.01916743
 C         -1.8177900670       -0.0424205800       -0.3598542091
 C         -1.0510628863        1.2885022548       -0.2545573732
 C          0.2708599028        1.1585457616        0.5134467427
 C          1.0755684467       -0.0121479836        0.0299381634
 O          2.2531080909        0.0721434282       -0.2706513633
 C          0.3133321494       -1.3059315376       -0.0501744038
 C         -1.1289222224       -1.1624772322        0.4166127320
 H         -1.8865967601       -0.3417270119       -1.4068663406
 H         -2.8353207036        0.0803913831        0.0108588317
 H         -0.8308718318        1.6666802211       -1.2536788457
 H         -1.6601773814        2.0393004972        0.2487857669
 H          0.8603885365        2.0717127442        0.4228073639
 H          0.0638344580        0.9887666623        1.5722680585
 H          0.3486189944       -1.6401454891       -1.0908204441
 H          0.8526772176       -2.0557556765        0.5330417270
 H         -1.6603170761       -2.1006851633        0.2538073225
 H         -1.1562768329       -0.9489038175        1.4857367043
