! r2scan-3c def2/J RI DEFGRID2 scfconv6 printgap
%output
    printlevel normal
end
* xyz 0 1
C 5.1828910741 -2.3870209723 -1.6797583968
C 4.5626563684 -1.0857886103 -1.1958102009
O 3.1282718969 -1.1141186201 -1.3161463392
C 2.4345135948 -1.679409961 -0.3404292441
O 2.9235378806 -2.2133454222 0.6277969782
C 0.9419143317 -1.6341041169 -0.616275982
C 0.5220488593 -0.2447570949 -1.0804406427
H 1.0303008051 -0.0095219392 -2.022979172
C 0.9485633555 0.8259693245 -0.0927431308
O 1.9603468292 0.7277707107 0.5629363553
O 0.1672046218 1.8876359849 -0.1249888193
C 0.570273612 3.053246212 0.6263619778
C 0.1679759319 2.9675127648 2.0877854816
S -1.2456242391 -0.1480012584 -1.4974812218
P -2.1155162696 0.1817510008 0.4125960551
S -1.1103400603 -0.4054666018 1.9911225377
O -2.5696722913 1.6909958691 0.5003716816
C -3.3665694835 2.3114520061 -0.5294431103
O -3.5383419198 -0.5305570298 0.2349315107
C -3.6546077074 -1.9551956733 0.1576157274
H 4.8674942811 -3.2089799912 -1.0414330317
H 4.8753468365 -2.5906387598 -2.7016861416
H 6.2638846399 -2.3042984464 -1.639321289
H 4.8691019601 -0.2429053056 -1.8157315128
H 4.8155770941 -0.8972320979 -0.1484958043
H 0.427631882 -1.9161303098 0.3045112802
H 0.7137245633 -2.3617680271 -1.3966647785
H 1.6557999405 3.1504054834 0.5348510804
H 0.0644471094 3.8764992276 0.1217809285
H 0.6721749869 2.1317404569 2.5695697482
H 0.4506226467 3.8871076523 2.5891856691
H -0.9055840431 2.820750998 2.1787680874
H -4.339081904 1.8271644521 -0.5872974434
H -2.8535256971 2.2392382783 -1.488242103
H -3.4690141941 3.3489972411 -0.222835871
H -4.7142404357 -2.1693662905 0.2711388586
H -3.0847782026 -2.4235155962 0.9617330223
H -3.2933759901 -2.3039947099 -0.8095223755
*
