! pbe def2-sv(p) def2/J RI DEFGRID1 loosescf d4 GCP(DFT/SV(P)) printgap
%output
    printlevel normal
end
* xyz 0 1
C 3.024077304 2.408220319 -0.8761382534
C 2.2508269339 1.1766108405 -1.2952605373
O 1.3079114718 0.7912815404 -0.2550033171
P 1.6365690029 -0.3383587458 0.796631574
S 0.4926199095 -0.3361354861 2.3825113049
O 3.1674037525 -0.079814114 1.1269604779
C 3.8606343831 -0.8771607945 2.1084561326
C 5.141233247 -0.1545339228 2.4736187582
S 1.7685616318 -2.1459483404 -0.3417851827
C 0.2328107994 -2.044485063 -1.3037118175
S -1.2675258341 -1.8054286271 -0.3068934877
P -1.7911495909 0.15478969 -0.9016978916
S -1.0465209735 0.8374669333 -2.5684794227
O -1.4821268839 0.9932075476 0.4192313506
C -1.2970566483 2.4199052236 0.3920592308
C -2.6084270294 3.1489546883 0.1848905108
O -3.3744979223 0.0662580285 -1.0056569774
C -4.1890325034 -0.4147972708 0.0914378444
C -5.5681954966 0.195902345 -0.0481074322
H 2.3405864086 3.2240217678 -0.6567394816
H 3.6169461077 2.1968631027 0.0096917429
H 3.6812663004 2.7017927276 -1.6886494151
H 2.9202482629 0.3366174653 -1.4950064653
H 1.6278298735 1.3721963873 -2.1715396187
H 3.2067949191 -1.0047126507 2.9774679659
H 4.0639463557 -1.8566016385 1.6670169381
H 5.7550580274 -0.0148012434 1.5885521068
H 4.9128874316 0.8163711519 2.9042846536
H 5.6876303864 -0.747350526 3.199598681
H 0.1440453991 -3.0084388404 -1.7992536874
H 0.2970754591 -1.2335745948 -2.0344986787
H -0.8490575719 2.6428035097 1.3622153364
H -0.5872228407 2.659913153 -0.4056160568
H -2.4305366255 4.2194638598 0.2107605425
H -3.0290019437 2.881942797 -0.7846658607
H -3.3154565574 2.8831740631 0.9668056146
H -4.225159154 -1.5048832506 0.0203757997
H -3.7145491467 -0.1349389387 1.0367675929
H -5.513911076 1.2781065093 0.032133134
H -5.9883931942 -0.0620991995 -1.0158818487
H -6.2081708437 -0.1911810045 0.7381601575
*
