! pbe def2-sv(p) def2/J RI DEFGRID1 loosescf d4 GCP(DFT/SV(P)) printgap
%output
    printlevel normal
end
* xyz 0 1
C 3.3705369132 -1.1796413519 -3.0224326198
C 4.1545845671 -1.0109129043 -1.7385463565
O 3.6143004824 0.0138022927 -0.8813095084
P 2.0945865401 0.1325628999 -0.4324261017
S 0.8635307345 0.9525953504 -1.7153829793
O 2.2040281169 1.0449862704 0.8444408968
C 3.0727445709 0.7569598385 1.9708311455
C 2.5862286616 1.5789421321 3.1460693348
S 1.6800554757 -1.8410649474 0.2434016873
C 0.039150573 -1.5900193651 0.967103737
S -1.2989583589 -1.4327838098 -0.255314663
P -2.0393477017 0.499171786 0.2506910951
S -1.01971836 1.4935792594 1.5935227954
O -3.5561400001 0.2551036681 0.6877553807
C -3.9571348147 -0.0420165637 2.0332251385
C -3.4969368232 -1.4133651939 2.4867722554
O -2.2488823264 1.2942192634 -1.0879348153
C -2.5633246499 0.745021623 -2.3885250764
C -3.7883348383 -0.1422598432 -2.36832102
H 3.8653845734 -1.9104668046 -3.6537592192
H 2.3608268242 -1.5248629138 -2.8030008925
H 3.299980692 -0.2322115566 -3.5519630083
H 5.1727794921 -0.6696934226 -1.9335532698
H 4.1765010968 -1.9461627484 -1.1725641841
H 3.0270980355 -0.3153535736 2.1834965543
H 4.0906643458 1.0253173237 1.6821297566
H 3.1831067884 1.3428978828 4.0207620091
H 2.6720182992 2.6383142959 2.9221422218
H 1.5398942281 1.3613335883 3.3481737456
H 0.0445771105 -0.6866842856 1.5855220887
H -0.1488570395 -2.4831539664 1.5575288455
H -3.5583595495 0.7355151516 2.6930272277
H -5.0454979866 0.0250697393 1.9987085994
H -2.4153007859 -1.4199110258 2.608901306
H -3.9584597675 -1.6461663989 3.4410012151
H -3.7778936401 -2.1675929024 1.7563046565
H -2.7143460272 1.6357557222 -3.0000730104
H -1.6810046054 0.2079779606 -2.7481569993
H -4.6348718841 0.3966101587 -1.9505844073
H -4.0182403266 -0.4478255148 -3.3842603003
H -3.6014481983 -1.0299426207 -1.7658469468
*
