! pbe def2-sv(p) def2/J RI DEFGRID1 loosescf d4 GCP(DFT/SV(P)) printgap
%output
    printlevel normal
end
* xyz 0 1
C 2.8608130128 -1.3536141796 3.2893605314
C 1.7277578861 -0.989309194 2.3519544002
O 2.0460550718 -1.3819997531 0.9938476577
P 2.5827275737 -0.3858674714 -0.1021802555
S 2.9782176674 -1.3869062101 -1.7368270989
O 3.768970321 0.3466193656 0.6568476585
C 4.3585982234 1.5997406344 0.2612791086
C 4.8439608963 1.5926664157 -1.1727750673
S 1.119170903 1.1607198871 -0.3007076044
C 0.0610722111 0.2661919239 -1.455826209
S -0.9815709716 -0.9655263055 -0.639658083
P -2.7622137248 0.2201325482 -0.4112888673
S -2.8591880519 1.8379443063 -1.5045354238
O -2.9297381586 0.3669312008 1.1661481656
C -1.9312996765 0.9025158709 2.0512680453
C -1.6981931134 2.3850524054 1.8435974055
O -3.9425892586 -0.751008659 -0.7763687935
C -4.1436000021 -2.0451455207 -0.1534022004
C -5.174042425 -1.9520626852 0.9532311379
H 3.0669375379 -2.4184426216 3.2263957287
H 3.7612973621 -0.8078698673 3.0206448976
H 2.576671116 -1.1017947402 4.3062551534
H 1.5274014809 0.0858452454 2.3747336423
H 0.8197177067 -1.5461358136 2.592127202
H 3.617319412 2.3888370254 0.4146251749
H 5.1869222161 1.7260359342 0.960577034
H 5.3548113753 2.526064952 -1.386245313
H 5.5258072416 0.7619579332 -1.3393711564
H 4.0019191168 1.4858800098 -1.8554776694
H 0.6932840379 -0.2648156772 -2.1695242077
H -0.5777048125 1.0012895701 -1.9510140786
H -2.3329328903 0.699613119 3.0456449271
H -1.0031991778 0.3407888973 1.9069727073
H -1.2416381564 2.5690932596 0.8724202926
H -2.6411634111 2.9235624879 1.8891130254
H -1.0344381867 2.7555056231 2.6179910942
H -4.4888230449 -2.6874679378 -0.9655264284
H -3.184143186 -2.4125967663 0.2206587881
H -6.1060119343 -1.5571843907 0.5583572916
H -5.3482418371 -2.9431989934 1.3602646042
H -4.8230073476 -1.2937681662 1.7429843703
*
