! pbe def2-sv(p) def2/J RI DEFGRID1 loosescf d4 GCP(DFT/SV(P)) printgap
%output
    printlevel normal
end
* xyz 0 1
C 2.8083695752 1.5538859306 -2.9379753646
C 2.8805513148 1.4545493284 -1.4293911565
O 2.4760104568 0.1191573734 -1.0544179893
P 2.1230726665 -0.2551829097 0.4408514766
S 0.9662845878 1.0105788097 1.4089257653
O 3.5667337305 -0.3787936486 1.0962590058
C 3.7689423657 -0.4092156092 2.5198566153
C 3.1993403218 -1.6668594949 3.1431178775
S 1.5430978119 -2.2529577151 0.1516419209
C -0.0467555465 -2.0313199039 -0.6953133717
S -1.3930743039 -1.5165825089 0.4212090107
P -1.899867791 0.3305962565 -0.4822400503
S -0.6966425672 1.1040910807 -1.8075189247
O -2.2366658495 1.1601943393 0.8353021349
C -2.1301673781 2.593531149 0.8943763973
C -3.2158363782 3.2673560648 0.0802462624
O -3.3013050545 0.0603367289 -1.1906448168
C -4.4257202802 -0.5164440361 -0.4858701952
C -4.7019369836 -1.9156527202 -0.9995996997
H 1.779550727 1.4243942277 -3.2655882424
H 3.161339368 2.5319998087 -3.2471791497
H 3.4259318634 0.7832695827 -3.3894760303
H 2.2037149716 2.1701182289 -0.9504069098
H 3.8962528866 1.6143277542 -1.0595543165
H 4.8525367957 -0.3551774057 2.6313753602
H 3.3027254761 0.4815363065 2.9534149819
H 3.5880848445 -2.5479975661 2.6388957387
H 3.4666399249 -1.7018833888 4.1943147554
H 2.1130826971 -1.6642487212 3.0545395773
H -0.2970253189 -3.0100607158 -1.0952583741
H 0.0616818354 -1.288715705 -1.489650393
H -2.2120577134 2.8187804987 1.9586003106
H -1.1352213577 2.8832054373 0.5418784882
H -4.1972596085 2.9624232203 0.4342781788
H -3.1173297735 4.3442887562 0.1727982065
H -3.1149505721 2.9905938458 -0.9694345217
H -4.2133738847 -0.5204053362 0.5872838442
H -5.2640005589 0.1518046654 -0.6917651411
H -3.8797886165 -2.5816052227 -0.7504238175
H -5.6120822264 -2.2880005789 -0.5403807493
H -4.8259034364 -1.8943802033 -2.0786727338
*
