! pbe def2-sv(p) def2/J RI DEFGRID1 loosescf d4 GCP(DFT/SV(P)) printgap
%output
    printlevel normal
end
* xyz 0 1
C 4.4248741329 1.9465895091 -0.8709405525
C 4.559202991 0.4380715266 -0.9136104187
O 3.2841912733 -0.2156731281 -1.0458149943
P 2.2045682958 -0.2185478547 0.1178447477
S 2.9306495905 -0.3995916602 1.9329076474
O 1.2065063999 -1.3475734094 -0.3585008821
C 1.3139531435 -2.7213928805 0.061242962
C 2.5762019706 -3.3738759909 -0.4602517645
S 1.0119382686 1.4787206467 -0.2700049744
C 0.2051334534 1.5346431308 1.3521705873
S -0.8820203853 0.1179719904 1.6803664328
P -2.1582100064 0.2583436361 -0.0275392296
S -1.6908682286 -0.7756012227 -1.6297764173
O -2.2552002579 1.8231471284 -0.2133445692
C -2.4880910672 2.4210412638 -1.5057329298
C -3.9335875929 2.2552128428 -1.9226040945
O -3.5810814533 -0.0668413347 0.6067454367
C -3.88807788 -1.3277668278 1.2296447893
C -4.4252985817 -2.3293725389 0.2253058642
H 3.8468043786 2.2982267337 -1.7219818044
H 3.9197193492 2.2500512293 0.0452303488
H 5.4125289532 2.3958358564 -0.8940625696
H 5.0429127185 0.0695179018 -0.0032025099
H 5.1150277482 0.106431798 -1.7915615546
H 1.2810709592 -2.7499151534 1.1555842582
H 0.4155587104 -3.1851321784 -0.3501038113
H 2.5686183413 -4.4284120481 -0.2031095793
H 2.6351490483 -3.2626811222 -1.5399649545
H 3.4492068096 -2.904141553 -0.0077249993
H -0.3712571331 2.4548177034 1.3899483993
H 0.9629125745 1.5051607228 2.1362001887
H -2.2166215486 3.4681348602 -1.3675319109
H -1.815790781 1.9564907908 -2.2344554911
H -4.5931021463 2.6674877862 -1.1639241266
H -4.099717802 2.7646397404 -2.8664106275
H -4.1571293893 1.1959019843 -2.0443835402
H -2.9894685873 -1.7079647461 1.7274086316
H -4.6391044633 -1.0805438017 1.9825880029
H -4.6793087001 -3.2505448922 0.7397205642
H -5.3123737107 -1.9315648395 -0.2595326714
H -3.6782301505 -2.5407306319 -0.536532826
*
