! pbe def2-sv(p) def2/J RI DEFGRID1 loosescf d4 GCP(DFT/SV(P)) printgap
%output
    printlevel normal
end
* xyz 0 1
C 2.4859970897 -3.1552520856 -2.676935309
C 3.3133780846 -3.0318050635 -1.4071835887
O 3.0465882848 -1.7741335557 -0.7574332611
C 2.0845058434 -1.7200423454 0.138380945
O 1.4433313687 -2.6706281794 0.5283529138
C 1.8465513999 -0.2947108558 0.60370419
C 1.1206007189 0.4596607276 -0.5162711384
H 1.7991181045 0.6203758715 -1.3574118164
C 0.5839745352 1.791793123 -0.0270518346
O -0.602620473 2.0568510104 -0.0371298744
O 1.5302983127 2.569560791 0.4096673148
C 1.1692073054 3.8645465084 0.9421906536
C 1.0338449275 4.8898016889 -0.1708662678
S -0.2802406702 -0.4861067944 -1.212178047
P -1.7795289767 -0.1893156378 0.2596765891
S -1.3590912737 0.1907329789 2.146639289
O -2.9602324585 0.6242114852 -0.4157091716
C -3.4067882375 1.9225553545 -0.0185881673
O -2.5213667577 -1.6046439605 0.1094528246
C -1.9608756574 -2.790436368 0.6774646471
H 1.4252589009 -3.1155591209 -2.4377170158
H 2.7185368604 -2.3418977094 -3.3580044041
H 2.7058645946 -4.1016799213 -3.1593817904
H 4.380897023 -3.011216739 -1.6267203001
H 3.081895439 -3.8416734631 -0.7098526046
H 2.7962215337 0.1994503787 0.8049885143
H 1.2362536084 -0.3216988789 1.5084007604
H 0.2349260447 3.7616493279 1.5005485513
H 1.9894264099 4.1113073998 1.6157225846
H 0.2182123 4.6185764074 -0.8370751411
H 0.8229118418 5.8610597388 0.2639827385
H 1.955772835 4.9460786884 -0.7426541883
H -3.1122187745 2.1280317863 1.0118094076
H -4.490767526 1.907567329 -0.1081946629
H -2.9709250745 2.6682960282 -0.6804901417
H -1.9681169819 -2.7175971186 1.7662160391
H -0.934288522 -2.9456104098 0.3394621697
H -2.5984257268 -3.604628656 0.3442617378
*
