! pbe def2-sv(p) def2/J RI DEFGRID1 loosescf d4 GCP(DFT/SV(P)) printgap
%output
    printlevel normal
end
* xyz 0 1
C 4.4735743593 0.3374537169 -2.2952117735
C 4.4419508712 1.0013308508 -0.9340237033
O 3.6823462557 0.2383937756 0.0190971517
P 2.1041507988 0.0614045274 -0.0891758215
S 1.1757102896 1.7039461558 -0.6432450397
O 1.7560526772 -0.4914631918 1.3527032616
C 1.7808216952 0.3626814511 2.5174278442
C 1.0167903569 -0.3396645464 3.6204058063
S 1.8464342578 -1.6935005241 -1.2093254916
C 0.0527202741 -1.6405646294 -1.4645425497
S -0.8999873426 -1.8208865545 0.0754478101
P -1.9776583386 -0.0056582595 0.0674253212
S -2.1755856688 0.8573188003 -1.6891246148
O -1.2519596147 0.7457173944 1.260872837
C -1.8327705029 1.8441610299 1.9982414102
C -2.0175841724 3.078543299 1.1399781664
O -3.3689332772 -0.3518593262 0.7600048651
C -4.5183303883 -0.7759797165 0.0086776931
C -4.3427768937 -2.1671318154 -0.5644295867
H 4.8025481021 -0.6945845684 -2.2045606579
H 3.4779016539 0.3498831031 -2.7372727864
H 5.1533562245 0.8796350148 -2.9445890316
H 4.0027280578 2.0019289177 -1.003297466
H 5.435968313 1.0604568983 -0.4888925792
H 2.8258696457 0.5275559963 2.7911613991
H 1.3243921684 1.3222865228 2.2510660424
H 1.4759305172 -1.3010652218 3.8310738716
H 1.0331907405 0.2738150087 4.5154670313
H -0.0119810173 -0.5057024647 3.3113339176
H -0.170861048 -2.4893176692 -2.1059264092
H -0.2352005012 -0.6999389832 -1.9441795742
H -2.783526537 1.5106489139 2.4203824249
H -1.1129115645 2.0230030513 2.7992014913
H -2.7727575146 2.900745289 0.3758864543
H -2.3303884313 3.9104035171 1.7628553645
H -1.0832982956 3.3313914482 0.6413439284
H -5.3332371838 -0.7372422776 0.7327725793
H -4.6938661436 -0.0507282606 -0.7923655364
H -4.0462360513 -2.8631478749 0.2159543437
H -5.2792415889 -2.4936703094 -1.0049440419
H -3.5745817916 -2.1553292043 -1.3360547645
*
