! pbe def2-sv(p) def2/J RI DEFGRID1 loosescf d4 GCP(DFT/SV(P)) printgap
%output
    printlevel normal
end
* xyz 0 1
C 2.5359054849 -3.8522915027 -0.6952872564
C 2.6730906415 -3.4545364411 0.7657289569
O 2.765787177 -2.0214804418 0.8911324914
C 1.6583810626 -1.3260957587 1.0019819372
O 0.545343734 -1.8151624946 1.0547421369
C 1.9246632741 0.1605883369 1.0651474595
C 0.8653257098 0.916030079 0.2753330022
H 0.7729766446 0.5015000495 -0.7391406032
C 1.1782044729 2.4009513932 0.1558084676
O 2.1665201859 2.9141292272 0.6236876484
O 0.241299352 3.0267294017 -0.5220379525
C 0.3958647361 4.4434991507 -0.7495092109
C 1.2088189258 4.7038474387 -2.0071428055
S -0.7955845531 0.7598924577 1.0260863146
P -1.5854140918 -0.7899748747 -0.2113426069
S -0.5468158561 -1.331870053 -1.779550516
O -2.111801855 -1.9822692014 0.67238464
C -2.8963585539 -1.7714309607 1.8615258765
O -3.0014134595 -0.1415322179 -0.6272105512
C -3.0564850109 0.9939282495 -1.49277566
H 1.6182226988 -3.441332481 -1.1137025073
H 3.3783918015 -3.4748814531 -1.2679075865
H 2.5031692641 -4.9338174124 -0.7733855604
H 3.6021001631 -3.8283127541 1.1960721172
H 1.8127574815 -3.8020550541 1.344522778
H 2.9149652326 0.3697817562 0.6602949661
H 1.9039201148 0.4813245031 2.1094170243
H -0.62350675 4.8156963716 -0.8496296495
H 0.8806625572 4.8837934756 0.1258048996
H 2.2236955508 4.3339580774 -1.8808875744
H 0.7534601558 4.2047008293 -2.8581078743
H 1.2440741151 5.7717634279 -2.1950395891
H -2.3291224892 -1.176516354 2.577236269
H -3.0841262773 -2.7672321965 2.2545280364
H -3.8286446225 -1.2693628268 1.6085896275
H -2.5958509836 1.8560962999 -1.0084593522
H -4.1126981009 1.1734716008 -1.6747760434
H -2.5380644198 0.7762872739 -2.4281187649
*
