! r2scan-3c def2/J RI DEFGRID2 scfconv6 printgap
%output
    printlevel normal
end
%cpcm
    smd true
    smdsolvent "water"
end
* xyz 0 1
C 5.4475275198 -0.1832334549 -0.8483060172
C 4.4498531272 -0.9288912102 0.0166713699
O 3.4390330004 -0.0327302862 0.519203982
P 2.0192563275 0.1222368019 -0.1828668836
S 2.0447388997 0.4635796673 -2.1165031682
O 1.3540883503 1.2098261808 0.752287228
C 1.4405557565 2.6204086385 0.4732647576
C 2.8610163282 3.1294972339 0.5830196735
S 1.0727157005 -1.6522816946 0.4332465238
C -0.1598835917 -1.8902777377 -0.8963287991
S -1.8518306453 -1.9434955241 -0.2725737431
P -2.0572352757 0.1208283472 0.1917633995
S -1.3493128193 1.3687978792 -1.1418160842
O -1.3858565853 0.3415798438 1.6005098198
C -1.4329341304 -0.5526544471 2.7411710324
C -2.8428269283 -0.9097571268 3.1563270563
O -3.6038757111 0.3034895072 0.5002008297
C -4.573641953 0.5955062037 -0.5204114115
C -4.7645696027 -0.5592838917 -1.4824182991
H 5.8916877584 0.6340621989 -0.2870350792
H 6.2275860882 -0.8676726705 -1.1653216737
H 4.9517704112 0.220786797 -1.7284991266
H 4.9243813014 -1.3398568402 0.9095642865
H 3.971614411 -1.7356560383 -0.5463357043
H 1.0338041159 2.8011945885 -0.5277074406
H 0.7806775972 3.071257622 1.2162315277
H 2.8658690301 4.2080476386 0.4603798641
H 3.2786764756 2.8688114894 1.5520119065
H 3.4726775284 2.6804478916 -0.1988044531
H 0.026057966 -2.8572317067 -1.3561789334
H -0.0493120578 -1.0792500037 -1.6220212864
H -0.8572478379 -1.4501106519 2.4961876782
H -0.9121018456 0.0130614713 3.5152554603
H -3.3243883244 -1.5062397944 2.3844387603
H -2.8013202187 -1.4868553623 4.0750313057
H -3.4276250289 -0.0088401768 3.3221839254
H -5.4843296303 0.8057270226 0.0422047835
H -4.25201907 1.4937703021 -1.056954797
H -5.5999517354 -0.3414381268 -2.1401044092
H -3.8687998048 -0.6945720328 -2.0863596369
H -4.9633548939 -1.4785592846 -0.9376434272
*
