! pbe def2-sv(p) def2/J RI DEFGRID1 loosescf d4 GCP(DFT/SV(P)) printgap
%output
    printlevel normal
end
* xyz 0 1
C 3.7824797345 -1.7195161441 1.5434716325
C 2.9138586655 -2.5358023868 0.600405176
O 2.6753152861 -1.8112200384 -0.6233772216
C 1.677692999 -0.9684819985 -0.6703310439
O 0.9124434606 -0.7586461104 0.2597306463
C 1.5391373434 -0.2816140963 -2.002396294
C 0.5865965616 0.8939931058 -1.8704651662
H 0.5194583982 1.4506141231 -2.809532161
C 1.0105303809 1.8639838442 -0.7752951706
O 2.0596887034 1.772499938 -0.1773639905
O 0.1299412429 2.8260676467 -0.623614531
C 0.4198273376 3.9004360725 0.2933868068
C 0.0538239012 3.5417410018 1.7232910266
S -1.1624669207 0.3922297851 -1.6351069304
P -1.4993654304 -0.5772928308 0.2244525888
S -1.2792070047 -2.5210513347 0.4824395955
O -1.1286442639 0.4220498534 1.4044804202
C -0.4350674558 0.0183217647 2.5865097307
O -3.0803199168 -0.2487945522 0.2616584919
C -4.021954314 -0.9319218583 -0.5646945933
H 3.9531607037 -2.2830773108 2.4544816767
H 4.7354048864 -1.4939149761 1.0732991397
H 3.2861351656 -0.7836406963 1.7928083689
H 1.949660403 -2.7771036666 1.0577734172
H 3.416969073 -3.4481095942 0.2809648972
H 1.1582789816 -0.9977049636 -2.7330093403
H 2.5263169104 0.0532152423 -2.3236651602
H 1.4842358678 4.1405996657 0.2153701294
H -0.1884510703 4.7260799603 -0.0762205464
H -0.9684304466 3.1740980406 1.7659126535
H 0.7192079893 2.7683831199 2.0990613397
H 0.1477584294 4.4231982946 2.3488460545
H 0.6091621947 0.3190475989 2.5071015982
H -0.48967759 -1.0645016767 2.7119006093
H -0.9232147205 0.522850395 3.4172468111
H -3.9749755538 -0.548064029 -1.5839203295
H -4.9970094642 -0.7348254366 -0.1258362322
H -3.8149655779 -2.0044437591 -0.5611571458
*
