! pbe def2-sv(p) def2/J RI DEFGRID1 loosescf d4 GCP(DFT/SV(P)) printgap
%output
    printlevel normal
end
* xyz 0 1
C 5.4035402432 -2.4133892381 -1.6170017312
C 4.9229785794 -1.2048845966 -0.829369971
O 3.6949704604 -1.496481318 -0.134257162
C 2.5575198036 -1.3449088982 -0.7808464097
O 2.4565534454 -0.9443051714 -1.9190337446
C 1.3756002861 -1.7444208324 0.0854609842
C 0.2473650311 -0.742168099 -0.1070386449
H 0.0522187095 -0.6084867965 -1.1798743979
C 0.55723447 0.6281629897 0.4563474051
O -0.314103428 1.3436344473 0.9132989251
O 1.8186331484 0.9428384963 0.368081327
C 2.245556435 2.2362812029 0.8552066591
C 2.5935355945 2.1604774451 2.3322662159
S -1.3020052568 -1.3111553721 0.6774315618
P -2.5571103094 0.2997562439 0.1105945767
S -2.1167673765 1.2719258341 -1.5437828655
O -3.9479659522 -0.4882674215 -0.0101476029
C -4.1677034354 -1.4487705616 -1.0462274482
O -3.0135912654 1.1194606835 1.3875197431
C -2.7476598413 2.5030236183 1.626985267
H 6.3628743704 -2.1879869781 -2.0709830979
H 5.5108155143 -3.2710023603 -0.95872257
H 4.6907657062 -2.655264733 -2.4020666861
H 4.752659947 -0.3530435522 -1.4936895745
H 5.6269773848 -0.940464098 -0.0404528739
H 1.6878908049 -1.8035682656 1.1265094538
H 1.0307155835 -2.7281515117 -0.2379790821
H 3.1186705639 2.4772836969 0.2489321844
H 1.4455010621 2.9582621331 0.6722805146
H 1.7106875434 1.9075468166 2.9148380765
H 3.3567114894 1.4055016337 2.4990494106
H 2.9662672105 3.1254072738 2.6592859769
H -3.8932055901 -1.0255385262 -2.014728627
H -5.23160255 -1.6696283741 -1.018201916
H -3.5844413408 -2.3500651843 -0.8549915239
H -2.43475827 2.9976465026 0.7058973617
H -1.9610635598 2.587583461 2.3740495375
H -3.6785922404 2.9332266363 1.9903347893
*
