! pbe def2-sv(p) def2/J RI DEFGRID1 loosescf d4 GCP(DFT/SV(P)) printgap
%output
    printlevel normal
end
* xyz 0 1
C 4.5097270637 -1.6336623676 -1.0637110442
C 4.6336163233 -0.20277113 -0.5819987264
O 3.5817822613 0.152702816 0.3304352999
P 2.0654324738 0.3011908832 -0.1342242139
S 1.8841106151 1.0579148257 -1.9398170748
O 1.4639722179 1.0557961012 1.1250434832
C 2.0042014044 2.2820577149 1.6664350392
C 1.7361118161 3.4694476721 0.764168426
S 1.2050871519 -1.6032955379 0.1724889436
C 0.1343549205 -1.7212887823 -1.2988133734
S -1.5962846709 -2.0750647099 -0.8985054972
P -2.0664925038 -0.3520831595 0.2125572716
S -1.3823232273 1.3872195957 -0.3965794107
O -1.5930950265 -0.8320059807 1.6455856263
C -1.369233404 0.0752396972 2.741844889
C -2.6530311067 0.7257368468 3.2121861141
O -3.6482224723 -0.4203167065 0.3526314133
C -4.5392037536 0.194689355 -0.5930840694
C -4.4988644772 -0.4885114436 -1.9447936862
H 4.4169415375 -2.3109194683 -0.2185762673
H 3.6283422874 -1.7352323945 -1.6954310624
H 5.3895901509 -1.8946713613 -1.6427618485
H 4.6046806389 0.4903527118 -1.4288828223
H 5.5454801078 -0.0484560984 -0.0035896591
H 1.4892799399 2.3876378318 2.6233998652
H 3.0747067996 2.1449405089 1.835265112
H 0.6769779728 3.5198682614 0.5181495039
H 2.033547123 4.3827087529 1.2693131699
H 2.2959900568 3.3765842319 -0.1647867897
H 0.4675123553 -2.5621179961 -1.9018898532
H 0.2106779758 -0.783107563 -1.8571009353
H -0.9244095216 -0.556346267 3.5122504893
H -0.6454072184 0.8298184506 2.418701045
H -2.4545569463 1.3115433643 4.1043338013
H -3.0413203345 1.3830143096 2.4348646259
H -3.39759528 -0.0342763576 3.4340332054
H -5.5200906624 0.1042554578 -0.1245262327
H -4.2664958875 1.2508899362 -0.6887052283
H -4.6543360258 -1.55844691 -1.8319474776
H -5.2748719952 -0.0740438458 -2.5803547267
H -3.5310861846 -0.3237295509 -2.41705173
*
