! wb97x-v def2-tzvp def2/J RIJCOSX DEFGRID2 scfconv7 GCP(DFT/TZ) printgap
%output
    printlevel normal
end
%cpcm
    smd true
    smdsolvent "water"
end
* xyz 0 1
C 2.8122978801932796 -8.416168653088205e-06 0.025408256199658235
N 1.406544274776015 -1.181054236342994e-05 -0.38400790483267006
C 0.7400205901167809 1.1904267559569666 0.16545890599272328
C -0.7400189169234237 1.1904275330920233 -0.16545609726621074
N -1.4065486094193742 -5.7438527963253424e-06 0.38401748712472605
C -0.7400198757740294 -1.1904456132158094 -0.16544256540991925
C 0.7400196216543009 -1.190443104599436 0.16547428193866517
C -2.8122961618455595 -6.074544821789402e-06 -0.025417068905089806
H 3.3167596711139367 -0.887003853982526 -0.37123272954779585
H 2.930541348292412 4.773739737981581e-05 1.1243255755067376
H 3.3167872498773185 0.8869304063449927 -0.3713262664490529
H 0.8734199832768273 1.2446866229173061 1.2632630494051473
H 1.2029815977194478 2.086391360638167 -0.26327751761078827
H -1.2029782151948567 2.0863952317703602 0.26327611924400673
H -0.8734175226659285 1.244682575184835 -1.2632604329535708
H -1.2029804711270906 -2.086408425346532 0.26329837311115367
H -0.8734160844718574 -1.2447127276336594 -1.263246861301396
H 0.87341785000015 -1.2446914119169332 1.2632792314183914
H 1.202979517673426 -2.0864129332781602 -0.263252559342151
H -3.3167791956507586 0.8869570746789809 0.37126791975863865
H -3.316776874110065 -0.8869756804969172 0.37125810639407736
H -2.9305235941912504 -2.511236171246924e-07 -1.1243357415186326
*
