! r2scan-3c def2/J RI DEFGRID2 scfconv6 printgap
%output
    printlevel normal
end
* xyz 0 1
C 5.3060844311 -2.3825388975 -0.8017611561
C 3.9909791864 -3.0820397291 -1.105772062
O 3.1008965715 -2.2086452197 -1.8301800839
C 2.334242274 -1.3884509508 -1.147462201
O 2.2857468638 -1.3319102974 0.0644896079
C 1.5075440615 -0.5008956177 -2.0540603218
C 0.4565563705 0.2288943792 -1.2284630289
H -0.0220786672 1.0155000527 -1.8207085414
C 1.1206968996 0.8889866187 -0.0290660814
O 2.1260329669 1.5525701095 -0.1394205215
O 0.4538449673 0.7026883116 1.0910143548
C 0.9813570301 1.285767228 2.300139088
C 0.4938179588 2.7122693004 2.4836183814
S -0.8515887658 -0.9386890047 -0.7072547109
P -2.1372034557 0.4685827943 0.1793165823
S -2.0067381724 2.3630342647 -0.2857161786
O -3.4893939952 -0.2365682544 -0.3441021269
C -4.7595421554 0.389335775 -0.1216279105
O -2.1710115086 0.2668030516 1.7644425658
C -2.1818892813 -1.0497383892 2.3412445792
H 5.9738189507 -3.0742880889 -0.2990987479
H 5.7701125789 -2.0398672123 -1.7223594091
H 5.1323304407 -1.5254083217 -0.1543847893
H 3.4956246689 -3.3960822402 -0.1828897145
H 4.136156266 -3.9330763802 -1.7708518035
H 1.0518619751 -1.0984994661 -2.8423847987
H 2.1816979573 0.2291959005 -2.5077983616
H 0.6183540831 0.6357360533 3.0964522926
H 2.072342125 1.2455152365 2.2393644169
H 0.8605040067 3.3420524237 1.6759499472
H -0.5933253925 2.7395190576 2.4773757692
H 0.8591932075 3.0965563361 3.4298545291
H -4.7425749732 1.4128203677 -0.499901726
H -5.0003952305 0.399240156 0.9418300888
H -5.4791588315 -0.2092607119 -0.6739770774
H -2.4856009 -0.9103703785 3.3757320868
H -1.1815970849 -1.478963396 2.2868101798
H -2.8855737952 -1.6941237312 1.8134966381
*
