! pbe def2-sv(p) def2/J RI DEFGRID1 loosescf d4 GCP(DFT/SV(P)) printgap
%output
    printlevel normal
end
* xyz 0 1
C 2.7084279315 -1.8667948185 1.4421553929
C 3.1212014514 -2.1041476261 -0.0020246205
O 2.7401782981 -0.9955435979 -0.8423249272
C 1.608550184 -1.0789228803 -1.5209983983
O 0.8632576923 -2.0321939797 -1.4946569693
C 1.3460807778 0.1791797715 -2.326811697
C 0.3330249311 1.0583625653 -1.5715678885
H 0.234013803 2.0282719654 -2.0594133506
C 0.8457694928 1.2102953247 -0.1581546552
O 0.487850442 0.46519369 0.7380397181
O 1.7195762503 2.1636365688 -0.0559328359
C 2.4302410997 2.3567798466 1.1881298374
C 3.9016601421 2.0520884018 0.9651554267
S -1.3213969057 0.2867220706 -1.5388446968
P -1.8364884046 -0.0799230252 0.5007992932
S -1.9599618168 1.4049360352 1.7830137803
O -3.3234874405 -0.6155254956 0.1660573951
C -4.3816142804 0.2660468612 -0.2105396133
O -1.2323364803 -1.4298846134 1.0679460863
C -1.4833064221 -2.7366107429 0.515021767
H 3.2424968052 -1.0182746696 1.8609753415
H 1.6397476938 -1.6642531648 1.502682108
H 2.9322054054 -2.7518100731 2.0284908448
H 2.6485998574 -3.0085527032 -0.3952201484
H 4.2055246053 -2.169653893 -0.1000251564
H 0.9217630474 -0.0972260195 -3.2916007517
H 2.2761156723 0.7327806572 -2.451918713
H 2.2741652227 3.4034823331 1.4541806292
H 1.986001346 1.711811329 1.950561792
H 4.3113020556 2.7251029159 0.2181397214
H 4.4385374708 2.1836615845 1.8986727317
H 4.0251026611 1.0282451927 0.620484274
H -4.360923055 1.1622754226 0.4128912
H -5.3016922714 -0.2890068246 -0.0447699883
H -4.2802062608 0.5397806651 -1.2603480904
H -2.5364983265 -2.8507551942 0.2692843382
H -1.1924474887 -3.430760463 1.2997260445
H -0.8666354288 -2.8778906648 -0.3726763157
*
