! pbe def2-sv(p) def2/J RI DEFGRID1 loosescf d4 GCP(DFT/SV(P)) printgap
%output
    printlevel normal
end
* xyz 0 1
C 5.3905409023 0.5917190626 -1.9495266211
C 4.1230742575 -0.2379588879 -1.8935768502
O 3.6168605 -0.200727307 -0.5452074953
P 2.0702253395 -0.2159741242 -0.1947461021
S 0.9776175635 0.8319993643 -1.454093711
O 2.0644421135 0.1544540578 1.3393856137
C 2.7712355259 1.2706636595 1.9248652138
C 2.259972124 2.602218375 1.4184851043
S 1.613890477 -2.2738174902 -0.0585465043
C -0.0547207265 -2.1832854217 0.6481885938
S -1.3810526095 -1.9156563972 -0.5790037901
P -2.1188411375 -0.0271155995 0.028740467
S -1.189419017 0.8397272414 1.5259025011
O -3.670093638 -0.3176735705 0.2615794489
C -4.1735024781 -1.1968803343 1.2824298451
C -4.4042860159 -0.4634622521 2.5902778764
O -2.2110797929 0.7589695363 -1.3340923534
C -2.188155398 2.197654968 -1.4063829867
C -3.4448879429 2.8023546014 -0.8184764876
H 6.1148828692 0.211206474 -1.2352111612
H 5.807450355 0.5339425536 -2.9495654179
H 5.171774869 1.6297740225 -1.7138543506
H 4.317897898 -1.2834604605 -2.1425330422
H 3.356294797 0.1586216994 -2.5680644097
H 2.5821763741 1.152563525 2.992970615
H 3.83540369 1.1478071369 1.7132665343
H 2.4453868279 2.6956379131 0.3491558798
H 1.1880835317 2.6776534977 1.591570708
H 2.7657829754 3.4075125235 1.9412748665
H -0.089141093 -1.3804226491 1.3894461139
H -0.227064784 -3.1551901785 1.1019605884
H -5.1115535335 -1.574525193 0.8707501069
H -3.4752706905 -2.0298122632 1.4137788679
H -5.0885489569 0.3664185609 2.4369851263
H -4.8307491927 -1.1508135873 3.3136514007
H -3.4662588725 -0.0743755368 2.9797465809
H -1.294061153 2.5587373155 -0.887742932
H -2.0895426595 2.4016053214 -2.4732643038
H -3.4948003048 2.5800758284 0.2471775287
H -3.4259323009 3.8786823973 -0.9569123981
H -4.3226156172 2.385731524 -1.3053324823
*
