! r2scan-3c def2/J RI DEFGRID2 scfconv6 printgap
%output
    printlevel normal
end
* xyz 0 1
C 1.9297133685 -0.0139783264 -2.8085498029
C 2.289976343 -1.1575928995 -1.8814574675
O 1.4784483146 -1.1123819582 -0.6843219623
P 2.0543383882 -0.6088667114 0.7058826805
S 3.3034646548 0.9073753013 0.6791593088
O 2.6880821311 -1.9552779318 1.2645044529
C 3.4866791323 -1.9887528359 2.4658921689
C 4.3817145991 -3.2099357949 2.4007417403
S 0.282435231 -0.3993983267 1.8168852691
C -0.0251940254 1.3534473419 1.4465838827
S -0.0454734472 1.7319434533 -0.3303056543
P -1.9679005406 1.0111815232 -0.8280764392
S -2.3871022894 0.9696075817 -2.7393357295
O -2.8264971099 1.9792910654 0.0874764369
C -4.2311385477 2.2084143877 -0.1542297687
C -5.0560364877 0.9564743543 0.0560339098
O -2.135844072 -0.3798728525 -0.0737402849
C -1.8983111878 -1.6574663785 -0.6891022892
C -2.706532205 -2.6906453132 0.0695785887
H 2.4874092754 -0.1136748326 -3.7340453193
H 0.8646765827 -0.0249630249 -3.0312167921
H 2.1746941981 0.9398229084 -2.3451952118
H 3.3458247003 -1.1127509284 -1.6012787941
H 2.0698145082 -2.1253564685 -2.3348582893
H 4.0715621737 -1.0644367563 2.521676781
H 2.8066644866 -2.037402674 3.3198930189
H 5.0581795496 -3.1356100709 1.5538813221
H 4.9608895565 -3.2749141043 3.3160065471
H 3.7777229795 -4.1059489221 2.2916037871
H 0.7848169739 1.9525814372 1.8598110578
H -0.9816203097 1.6108333733 1.8930081893
H -4.4909590519 2.9922746515 0.5584700693
H -4.3474707748 2.5807554261 -1.1766329545
H -4.8554745943 0.5330824345 1.036813662
H -6.1101583191 1.2033615914 -0.0237277336
H -4.8075594986 0.2197863053 -0.706846977
H -2.194965653 -1.5985354298 -1.7420367081
H -0.8283893372 -1.8755908378 -0.6317938181
H -2.4128130336 -2.6878564666 1.1156290726
H -3.7672311469 -2.4672040205 -0.0018320972
H -2.5175237 -3.670936951 -0.355287063
*
