! pbe def2-sv(p) def2/J RI DEFGRID1 loosescf d4 GCP(DFT/SV(P)) printgap
%output
    printlevel normal
end
* xyz 0 1
C 5.7026861742 0.232039184 -1.0229997216
C 4.2436464337 -0.1581953718 -1.1464768259
O 3.5398567528 0.4008461 -0.0216914425
P 1.9502867694 0.4978458352 -0.0184017717
S 1.2104587888 1.3756449863 -1.6087246012
O 1.6894884865 1.2744062752 1.3257157988
C 2.5656915008 1.2326274482 2.4847575527
C 2.7134223435 -0.1582714093 3.0649069603
S 1.3463470907 -1.5324069339 0.2531706051
C 0.1289789088 -1.7497176362 -1.0748614027
S -1.5521591858 -2.0339473771 -0.463954151
P -2.1464883858 0.0049466941 -0.3267820714
S -2.2270834703 1.0087009972 -2.0030564282
O -1.1521084397 0.6071387013 0.7516941286
C -1.258019328 0.2276439128 2.1519537854
C -1.9565813828 1.3151215074 2.9391812051
O -3.5167558592 -0.0642749663 0.4724086684
C -4.7809620302 -0.2252392311 -0.1956270988
C -4.9153405152 -1.590493961 -0.8374391023
H 5.8021766741 1.3137174071 -1.0397224694
H 6.1119756393 -0.1468873866 -0.0912484106
H 6.2546364716 -0.1898812296 -1.8563176586
H 4.11770826 -1.2443558408 -1.1218043173
H 3.7982043862 0.2342344988 -2.0669974738
H 3.5359923915 1.6333869422 2.1877842367
H 2.0807554186 1.9147159416 3.1848684582
H 3.1480474742 -0.8309568313 2.3276644141
H 3.3705431784 -0.1084611741 3.9277468985
H 1.7524952959 -0.5599505491 3.3754252172
H 0.408267563 -2.6371947863 -1.635717786
H 0.1398475426 -0.8570490799 -1.7094116936
H -1.7880148871 -0.7253955498 2.2232563926
H -0.2266757156 0.1018866716 2.4826341934
H -2.9837629354 1.4252456667 2.6016048819
H -1.949684927 1.0510617713 3.992084183
H -1.439489395 2.2609838512 2.7987160845
H -5.5146779564 -0.0779892128 0.5980973512
H -4.8769638456 0.5646617587 -0.9469800629
H -5.9252802811 -1.7106468062 -1.215852103
H -4.215146291 -1.6802463293 -1.666747086
H -4.703521701 -2.3732738437 -0.1135413913
*
