! pbe def2-sv(p) def2/J RI DEFGRID1 loosescf d4 GCP(DFT/SV(P)) printgap
%output
    printlevel normal
end
* xyz 0 1
C 2.0317390645 -3.8596129215 -0.7574082272
C 1.4683903756 -2.5180103609 -0.3362032317
O 2.5317732188 -1.549009895 -0.4167006243
P 2.2531330032 0.0145056003 -0.3237582108
S 0.9141900143 0.7070225934 -1.580752147
O 3.6755533057 0.6198335831 -0.6028773725
C 4.9350384088 0.0361470505 -0.1790857618
C 5.0548900945 -0.0550058985 1.3265444942
S 1.8265941933 0.3770851881 1.7380755864
C 0.1119386312 0.9148620628 1.6371083486
S -1.0241575344 -0.4398255111 1.1892950445
P -2.343629213 0.6077064191 -0.1200677039
S -2.0942884523 2.5427485981 -0.2490088421
O -3.7716901949 0.0797083105 0.3564889864
C -4.2700638527 0.0968878675 1.7063005876
C -4.3461065042 1.4937223973 2.2871406086
O -2.2625660441 -0.0673078015 -1.5372310139
C -2.4081868929 -1.496650867 -1.7391542209
C -1.7322741727 -1.8494597366 -3.0477786094
H 2.3991654965 -3.8065647953 -1.7783030624
H 2.8500071209 -4.1413399075 -0.101562353
H 1.2488873751 -4.6081147441 -0.6961742015
H 1.0982888025 -2.5420714443 0.6934070731
H 0.6569699932 -2.1976766353 -0.9972977959
H 5.0247505238 -0.9478894707 -0.6416270408
H 5.6751507493 0.7167658668 -0.6024394527
H 4.3126943724 -0.7440608704 1.7257157196
H 6.0461941414 -0.4171841111 1.5809455294
H 4.9026118784 0.9206806408 1.7807086464
H 0.0007588489 1.7100159298 0.8953554534
H -0.1435948348 1.2682864641 2.6332088941
H -5.261413913 -0.3506865413 1.6164043679
H -3.6274268805 -0.5440218799 2.3168068247
H -4.800268801 1.4501001319 3.2717501604
H -3.3493419419 1.9238450747 2.3713556268
H -4.938735246 2.1394821562 1.6437570081
H -1.9461908547 -2.0167000748 -0.8934657362
H -3.476313995 -1.7210492719 -1.7612724668
H -1.774606251 -2.9232213605 -3.1977922266
H -2.2299628042 -1.3462675439 -3.8715378703
H -0.6950640472 -1.5222377464 -3.0293633954
*
