! pbe def2-sv(p) def2/J RI DEFGRID1 loosescf d4 GCP(DFT/SV(P)) printgap
%output
    printlevel normal
end
* xyz 0 1
C 2.7640043459 -0.7825791617 -2.8418988373
C 3.5070153538 0.0045552678 -1.7811945797
O 2.5936023208 0.6590688554 -0.8678352632
P 2.0747122106 0.0242649878 0.4849049584
S 1.0944351998 1.3136079045 1.5798752433
O 3.3673690353 -0.5794200646 1.2204816546
C 4.1482564921 0.1858486086 2.1562804073
C 4.9719799647 1.2553447984 1.4669314084
S 1.156098453 -1.8273111888 0.0498998565
C -0.2021046281 -1.7625138017 1.2592720939
S -1.8470330139 -1.7537128606 0.4978354666
P -1.9079129765 0.185771358 -0.3889139983
S -0.5173406521 0.6668045915 -1.6782682203
O -2.0187694865 1.2204136646 0.7881046163
C -3.0074794183 1.1523447421 1.8465497298
C -4.203402237 2.0216515023 1.5189370045
O -3.3733013538 0.1676981419 -0.999836791
C -3.6832623124 -0.6058689516 -2.1782880576
C -4.9868604503 -0.0851014101 -2.7482544666
H 3.4627521698 -1.0820295311 -3.6164827769
H 2.3019758374 -1.6699127921 -2.4151048733
H 1.9821018649 -0.1644073569 -3.2773391386
H 4.0624714132 0.8331072999 -2.2243745323
H 4.1814239522 -0.6377781597 -1.2086542999
H 3.4678498667 0.637443188 2.8852352729
H 4.7770019578 -0.5593464645 2.6453791654
H 5.630975809 0.8118331061 0.7249149103
H 4.3113498328 1.9683485965 0.9734859975
H 5.566968014 1.7819021534 2.206542056
H -0.0785133259 -0.8681968284 1.8756136252
H -0.1655825453 -2.6693287285 1.8569453402
H -3.3034947371 0.1090815422 1.9888537428
H -2.476727321 1.514679339 2.7294830636
H -3.8812364078 3.0434567168 1.3374541005
H -4.7066137295 1.649177197 0.6307784441
H -4.8921726496 2.0055854442 2.3577884568
H -2.8595202223 -0.4963015896 -2.8912264806
H -3.7654637779 -1.6547539562 -1.8821931125
H -5.7814383268 -0.1873732694 -2.014910738
H -4.8848755736 0.962948291 -3.0158969556
H -5.2400451566 -0.6577278946 -3.6343015912
*
