! pbe def2-sv(p) def2/J RI DEFGRID1 loosescf d4 GCP(DFT/SV(P)) printgap
%output
    printlevel normal
end
* xyz 0 1
C 0.849446501 1.293197194 -0.9797729386
C 1.4330611422 0.2925195863 0.0169058113
H 2.4395471709 0.0302498777 -0.3298833117
C 0.6018433229 -1.0087322256 0.0273974505
H 0.5295580529 -1.382221473 1.0600540687
C -0.8365852503 -0.7551855789 -0.4560371527
H -0.8549417184 -0.809982346 -1.5567666247
C -1.2831078652 0.6690176219 -0.0623418168
H -2.320367889 0.8369174209 -0.3846605417
O -0.5168446826 1.6288179186 -0.7396981065
O -1.2906318778 0.8706343678 1.3162814026
O -1.6486307415 -1.756221349 0.1031817143
O 1.269701822 -1.9415391347 -0.7857437946
O 1.482935876 0.8994297508 1.2905864953
H 0.9446903369 0.875182421 -1.9885814691
H 1.3937692598 2.2371926619 -0.9198529407
H -0.37271769 1.0300947196 1.6167620899
H -2.5821828974 -1.565854855 -0.0622599134
H 0.7799901987 -2.7766177232 -0.7786823997
H 2.0972103282 0.4204432672 1.8647198142
*
