! pbe def2-sv(p) def2/J RI DEFGRID1 loosescf d4 GCP(DFT/SV(P)) printgap
%output
    printlevel normal
end
* xyz 0 1
C 4.4974104376 -1.7371885152 -0.693831234
C 4.6065132846 -0.2917441189 -0.2525701085
O 3.4601630793 0.1382005476 0.5008173075
P 2.0188141279 0.3121161133 -0.1523601285
S 2.0432068033 1.0219189771 -1.9840669215
O 1.2894091516 1.1718471416 0.9607673474
C 1.312140078 2.6113577617 0.9669283074
C 2.7007182268 3.1615975989 1.2118907954
S 1.1344864065 -1.5674567664 0.1562766024
C -0.0358447482 -1.6243950799 -1.2477492607
S -1.748486329 -1.841155996 -0.7289264353
P -2.0218074547 0.0603044076 0.1832551172
S -1.4273919612 1.5704324736 -0.9162198022
O -1.287494786 0.0359016299 1.5789414202
C -1.7586249248 -0.609126446 2.7890247765
C -1.879435209 -2.1117402658 2.6480502868
O -3.5517425508 0.0780936146 0.6067816381
C -4.6045561094 0.4933443494 -0.2824633069
C -4.7763385748 -0.4489883262 -1.4556476251
H 5.4373896604 -2.0467446783 -1.1392350712
H 4.270281591 -2.3762082607 0.1556630621
H 3.7055099438 -1.8405618528 -1.4343462466
H 4.7140127053 0.3659617369 -1.1212702654
H 5.4405806724 -0.1415702025 0.4342167983
H 0.9113683054 2.9671314353 0.011304037
H 0.6190732052 2.8763433427 1.7671798644
H 3.3466598703 2.9278726487 0.3663520365
H 2.6424558027 4.239868905 1.3231357248
H 3.1238709833 2.7234353378 2.1121206626
H 0.2060519708 -2.494932413 -1.8517784906
H 0.0687581003 -0.702064873 -1.825972198
H -0.9965683604 -0.3365481431 3.5211620825
H -2.7163823785 -0.1608958661 3.0598029224
H -2.6764526231 -2.3669683332 1.9531885457
H -0.9448752821 -2.5349782977 2.2858339744
H -2.1089930271 -2.5361162812 3.6206160411
H -5.4888918783 0.507269107 0.3563661415
H -4.3807378891 1.5059127387 -0.632016232
H -3.914581217 -0.3821398704 -2.1176913413
H -4.87324167 -1.4745787644 -1.1089818118
H -5.6663234838 -0.1690721701 -2.0101164681
*
