! pbe def2-sv(p) def2/J RI DEFGRID1 loosescf d4 GCP(DFT/SV(P)) printgap
%output
    printlevel normal
end
* xyz 0 1
C 3.2341126114 -1.1400743235 -2.4145345436
C 3.3326102179 0.3546568142 -2.1992492453
O 2.2991336618 0.8558523806 -1.3184424309
P 2.0941721154 0.454572938 0.1885232851
S 1.0566007271 1.7774764779 1.1903603299
O 3.6110108622 0.3166453123 0.6689465954
C 4.0141805941 0.3904369556 2.0464868108
C 3.4994716928 -0.773536212 2.868785034
S 1.3320121623 -1.5380833353 0.252643764
C -0.0448372927 -1.3280882558 1.4187650283
S -1.6776226487 -1.6888966134 0.7147771449
P -1.9782910199 0.0292706746 -0.5010348965
S -0.7040769123 0.3497391842 -1.9507084621
O -2.1240554307 1.2595616293 0.4646640923
C -3.0805289851 1.3023926443 1.5582750271
C -2.5472109659 2.2571172083 2.6054099266
O -3.4749764419 -0.2031173009 -0.9828441081
C -3.8040952253 -1.2014999616 -1.9711519276
C -5.1821778436 -0.8817239412 -2.5132726641
H 3.4453390456 -1.6718625522 -1.4877133319
H 2.2334649749 -1.4026964737 -2.7512054038
H 3.9560577088 -1.4393944885 -3.1678052226
H 3.1521421833 0.90511374 -3.1240161094
H 4.3018389437 0.630941748 -1.7785655133
H 5.1040082347 0.394717096 1.9943442209
H 3.657456849 1.3396248615 2.4585116617
H 3.9582647286 -0.7436423651 3.8518320598
H 2.4194769783 -0.6984696229 2.9824817137
H 3.741407317 -1.7165506612 2.3855266482
H -0.028067687 -0.2981730594 1.7884049358
H 0.0817975915 -2.0486561675 2.2225091693
H -4.0302671484 1.6449443642 1.1445703527
H -3.2024663048 0.291197675 1.9573325291
H -3.2339942919 2.2865162469 3.4448016158
H -1.5670617669 1.9344728075 2.9478638074
H -2.4439798966 3.2530336538 2.1843654226
H -3.0436079933 -1.1743355939 -2.758531402
H -3.7821496422 -2.1796153127 -1.4836243334
H -5.9076700478 -0.8828023154 -1.7050804972
H -5.1798854682 0.0974125576 -2.9841980346
H -5.4581433239 -1.6319016554 -3.2468529632
*
