! pbe def2-sv(p) def2/J RI DEFGRID1 loosescf d4 GCP(DFT/SV(P)) printgap
%output
    printlevel normal
end
* xyz 0 1
C 2.0186210003 -0.7047903937 -3.1857001174
C 2.2671985588 0.5709237416 -2.4037228831
O 3.0787024969 0.3241848553 -1.2398170402
P 2.4782172499 0.0851393268 0.2040473968
S 1.1438521247 1.4098810667 0.7963199925
O 3.869229734 0.1183570921 0.9515199905
C 3.9774195951 0.3461596566 2.367683238
C 3.3502084801 -0.7667378318 3.1838928076
S 1.8826983982 -1.9569686774 0.2637044175
C 0.1089218268 -1.7834892095 0.5652358549
S -0.7980732396 -1.0802958484 -0.852615607
P -2.0721938393 0.3049913679 0.1559952853
S -2.0615258751 0.229165107 2.1084663596
O -3.4861302934 -0.0251853034 -0.5022328712
C -4.1827078934 -1.2474129502 -0.1909995965
C -5.6141627499 -1.1028885289 -0.6665162429
O -1.781297157 1.7332336115 -0.430308473
C -1.7337941601 2.0214513516 -1.8503608025
C -3.0542767538 2.5863491467 -2.3307653537
H 1.5358754517 -0.4553880924 -4.1250365469
H 2.9635382052 -1.2011072418 -3.3870585452
H 1.375210668 -1.3830143265 -2.6293236793
H 1.3272237091 1.0397789958 -2.0912966046
H 2.8468882104 1.2855991104 -2.9911780247
H 5.0530580029 0.4113538384 2.5374441846
H 3.506606938 1.3063557716 2.6023581016
H 3.7326127443 -1.7328262751 2.8640632284
H 3.5820160436 -0.6157243056 4.2335092952
H 2.2671026935 -0.7553389612 3.0620710262
H -0.0761902239 -1.1417266124 1.4304212562
H -0.2547664382 -2.7925763919 0.7411224912
H -3.6735142293 -2.0695803658 -0.701989221
H -4.1332556103 -1.4094869698 0.8909613854
H -5.6355832571 -0.9291753674 -1.7384231182
H -6.1574973415 -2.0141090017 -0.4394306532
H -6.0911349433 -0.2665779339 -0.1631257101
H -0.9268849773 2.7509508214 -1.9497369842
H -1.4745894118 1.1052575647 -2.3897628137
H -2.9638297011 2.8523649553 -3.3792468651
H -3.8439731126 1.8498517253 -2.2110748137
H -3.3103853507 3.4716148697 -1.7551975493
*
