! pbe def2-sv(p) def2/J RI DEFGRID1 loosescf d4 GCP(DFT/SV(P)) printgap
%output
    printlevel normal
end
* xyz 0 1
C 1.5734998949 -2.6466238755 -2.1219181735
C 1.9076297383 -2.5792363821 -0.6448706245
O 2.8569468422 -1.5253465299 -0.3825715201
P 2.4191263205 -0.0486917721 0.0110274382
S 1.3172548332 0.9378845572 -1.269384532
O 3.8004038276 0.6687091413 0.2266853538
C 4.8254293772 0.1768520539 1.1281491789
C 5.8473616003 -0.6540348071 0.3801594508
S 1.6185386744 -0.3022220583 1.9881419511
C -0.011244691 0.4243810545 1.7663589614
S -1.0927679455 -0.6474554568 0.765687117
P -2.4295303302 0.8610239188 0.0750930465
S -1.7282481571 2.6880116196 0.0427425451
O -3.6799301543 0.7798801083 1.029244357
C -4.4423215399 -0.4361393196 1.242652658
C -5.6647908998 -0.4686377338 0.3489550774
O -2.9971997392 0.2784965358 -1.2856773015
C -2.1734108186 -0.003620919 -2.4371484855
C -2.0418297955 -1.5039479142 -2.6131579984
H 1.1184399876 -1.7128679765 -2.44404976
H 2.4769133689 -2.8103001321 -2.7025344627
H 0.8797080143 -3.4624129008 -2.2962630432
H 2.4084924359 -3.4882700924 -0.3068915524
H 1.0071890843 -2.4149746453 -0.0440698578
H 5.2743096222 1.0804506349 1.5443991343
H 4.3475695545 -0.3989537506 1.9256103562
H 6.636468493 -0.9455046106 1.0662316408
H 5.381713711 -1.5442346909 -0.0328506625
H 6.2747136188 -0.0730788909 -0.4325722961
H 0.06733767 1.3904567992 1.2601306862
H -0.4326775547 0.5342704095 2.7628158113
H -3.7924952339 -1.2971246631 1.0612539529
H -4.7217925052 -0.3986095249 2.2969748923
H -5.3682077611 -0.4826937774 -0.6962015653
H -6.2435925508 -1.3595205705 0.5717592914
H -6.2771828683 0.4114694274 0.5249610095
H -2.6912694102 0.4547127037 -3.2816908654
H -1.1969981903 0.4753357089 -2.316712095
H -1.5428196319 -1.9409475445 -1.7513580934
H -3.0250184025 -1.9531755968 -2.7190108371
H -1.4568353209 -1.7046286462 -3.5047011884
*
