! r2scan-3c def2/J RI DEFGRID2 scfconv6 printgap
%output
    printlevel normal
end
%cpcm
    smd true
    smdsolvent "water"
end
* xyz 0 1
C 3.9262472086 -1.4474415471 -2.5685554194
C 4.5169348896 -1.3699673214 -1.1759518342
O 3.5055493155 -1.3013690678 -0.153180682
P 2.514878601 -0.0663169332 -0.0022560822
S 3.2849777625 1.7049233216 -0.2976793051
O 1.9980935143 -0.2464063113 1.4755896977
C 1.5007041491 -1.5097715185 1.9863117289
C 0.5304604998 -1.210399234 3.1099422223
S 0.8634226721 -0.5844247655 -1.2541967512
C 0.1220983717 1.0624039925 -1.2603549233
S -0.6166705246 1.5130246692 0.3338804038
P -2.3582887144 0.3487020559 0.0953815011
S -3.2118338089 0.366931422 -1.674540337
O -3.3114764477 0.7695679471 1.2973051193
C -4.2797332744 1.8265078576 1.1795779421
C -3.6240604001 3.1841535369 1.0309944988
O -1.8312502531 -1.0587337424 0.5900007784
C -2.5421223286 -2.2885967146 0.3099397269
C -1.5296337432 -3.3997059731 0.1229925083
H 4.7219495515 -1.6263415369 -3.2845413777
H 3.1980025838 -2.2523374663 -2.6284835037
H 3.4342571755 -0.5084508207 -2.8177039762
H 5.1619298264 -0.4913636578 -1.0803991308
H 5.0764623967 -2.2719834165 -0.9241899091
H 1.0153429608 -2.0502942949 1.1685729112
H 2.3621884746 -2.0810069718 2.3371246812
H -0.3393361691 -0.6817969265 2.7269831572
H 0.2111483113 -2.1427221295 3.5648319345
H 1.0127701157 -0.589729544 3.8596587611
H -0.6497034587 1.0662113502 -2.0308115425
H 0.8961548553 1.802307905 -1.466400102
H -4.9202350316 1.6127286084 0.3179791584
H -4.8587219335 1.7558279437 2.101245954
H -3.101800425 3.2434684669 0.0766209004
H -4.3846087736 3.9576391049 1.063997254
H -2.9065548419 3.3478490409 1.8313762491
H -3.2040304409 -2.4842586216 1.156072663
H -3.143328868 -2.1456603322 -0.5945052629
H -0.8523635652 -3.1525672884 -0.6911558919
H -0.9565895906 -3.5427621516 1.0344441282
H -2.0551659162 -4.318348231 -0.1170803853
*
