! pbe def2-sv(p) def2/J RI DEFGRID1 loosescf d4 GCP(DFT/SV(P)) printgap
%output
    printlevel normal
end
* xyz 0 1
C 3.9574009737 1.4294365144 -1.1686334819
C 4.0487946039 1.1517748659 0.3179830172
O 3.2413075457 0.0324424053 0.70491606
P 1.644908903 0.0814542948 0.6434846118
S 0.9622256921 1.8095535672 1.2601564026
O 1.2490982912 -1.1423170235 1.563207152
C 2.0732344141 -2.3307855366 1.7077460167
C 2.9316461488 -2.2305790549 2.9517780658
S 1.3260504885 -0.6220760685 -1.369987711
C 0.1220029158 -1.9619024735 -1.1811811015
S -1.5437142092 -1.6101609816 -1.8458634492
P -2.0410246696 0.0995048078 -0.7202068412
S -3.9465152006 0.5128280775 -0.588897471
O -1.1279879441 1.1997948802 -1.4130821723
C -1.6113411636 2.5092330661 -1.7807475345
C -1.7193543237 3.4307692793 -0.5845963086
O -1.274665351 -0.1289839974 0.6659875458
C -1.9741991457 -0.540187257 1.8541951239
C -2.2669247113 -2.0270422427 1.8504101545
H 4.6310327248 2.2398169682 -1.4276903266
H 4.2185888859 0.5424434339 -1.739876709
H 2.9386933674 1.7220426504 -1.4253442161
H 3.7265842211 2.0265659442 0.8926664277
H 5.0591577539 0.8648276911 0.612616189
H 1.3624476922 -3.1559852175 1.7913321476
H 2.6877555254 -2.4554319215 0.8142472406
H 2.3076678328 -2.0580956284 3.8244878611
H 3.4789030652 -3.1593689369 3.0799084712
H 3.6367823704 -1.4091609555 2.8582667919
H 0.0316165636 -2.2236773266 -0.1318008223
H 0.4808860309 -2.7999916054 -1.7735478611
H -0.8728528117 2.8651574869 -2.5002149225
H -2.5848161711 2.3958735659 -2.2678762163
H -2.0011064796 4.4228627868 -0.9221369711
H -2.4783919629 3.0603656762 0.1030619451
H -0.7705393956 3.4822512026 -0.0562516104
H -1.3044444042 -0.2546544388 2.6675480942
H -2.903281935 0.0342528765 1.9214801177
H -1.3447308008 -2.6010114023 1.8128971649
H -2.8059667528 -2.2831496485 2.756954938
H -2.8846621691 -2.2802084354 0.9887981178
*
