! pbe def2-sv(p) def2/J RI DEFGRID1 loosescf d4 GCP(DFT/SV(P)) printgap
%output
    printlevel normal
end
* xyz 0 1
C 2.648269336 0.4723512123 -2.692630747
C 1.6491116036 -0.6343295646 -2.43440529
O 1.1380718816 -0.629105722 -1.0843742832
P 2.0206144463 -0.5483879181 0.2328424968
S 2.8853682848 1.1357703147 0.7632164774
O 3.0263907016 -1.7552750565 -0.0028454551
C 4.2169026906 -1.928846139 0.7850831184
C 3.8985889841 -2.3658792567 2.2000023604
S 0.6121038447 -1.2896109449 1.6136027524
C -0.2657762253 0.2525173928 2.0325554611
S -1.9857109105 0.2559898964 1.4880334437
P -1.779645964 1.0343082489 -0.4828830488
S -0.2240564247 2.1892570625 -0.7620600807
O -3.0645077179 1.903871831 -0.7692806453
C -4.4181298734 1.4088287767 -0.8913546106
C -5.0852292043 1.2457887226 0.4591804165
O -1.9285697176 -0.1853028042 -1.4978260067
C -1.8673743115 -1.6022540049 -1.226768214
C -3.2369329684 -2.1564330506 -0.8886790691
H 2.2112737531 1.4370733283 -2.4381924573
H 3.539835747 0.3268551439 -2.0834517233
H 2.9283620341 0.4708338878 -3.7413051076
H 2.092445202 -1.6159005379 -2.6173108806
H 0.7535433402 -0.5026686066 -3.0454946294
H 4.7809280805 -2.6893488427 0.2434697674
H 4.7691769282 -0.9835275216 0.7904081236
H 4.8216901844 -2.6057273013 2.7176671904
H 3.3951101236 -1.5599498263 2.7319833439
H 3.2504844321 -3.2383809012 2.1898093847
H 0.2647853296 1.0969095948 1.5820907071
H -0.2892690358 0.3331292021 3.1159318838
H -4.9157666259 2.17588858 -1.4873693756
H -4.3984722619 0.4686057257 -1.4454191228
H -5.0381519454 2.1791838014 1.0133294063
H -6.1246965363 0.971827018 0.3078604302
H -4.593855428 0.4717498903 1.0450658246
H -1.4778357677 -2.0346122705 -2.1500130546
H -1.1602634127 -1.79422061 -0.4166763477
H -3.1526996437 -3.2298314131 -0.7514554063
H -3.6090753248 -1.7135559932 0.0323217577
H -3.9372895074 -1.9570065322 -1.6952427225
*
