! pbe def2-sv(p) def2/J RI DEFGRID1 loosescf d4 GCP(DFT/SV(P)) printgap
%output
    printlevel normal
end
* xyz 0 1
C 2.9384203916 -3.2124489292 0.2670745694
C 3.1757624341 -2.2893433507 -0.9108981239
O 3.3764275405 -0.9196043811 -0.4862886688
P 2.2289477749 0.1293312582 -0.1931120439
S 2.9619197351 1.9218488901 0.047632146
O 1.3617370939 -0.4356100049 1.0300331029
C 1.4539525522 0.112058272 2.3570212899
C 2.7341981549 -0.3226566082 3.0404029574
S 0.8613251588 -0.1755700843 -1.7904813984
C 0.0768085616 1.4530834627 -1.6774919976
S -0.7448769447 1.7392761819 -0.096964419
P -2.3616114269 0.3536813962 -0.3401408212
S -2.8766295769 0.0264945918 -2.1982958853
O -3.5312056352 0.9864388198 0.5014828328
C -3.6723139777 0.9305115552 1.9429766468
C -2.532520263 1.618247395 2.6624683782
O -1.9814531473 -0.9393313515 0.5081358923
C -1.4020975874 -2.1351234362 -0.0441138467
C -2.1438482414 -3.3333283253 0.5139380361
H 2.8720538146 -4.2340646855 -0.0937388258
H 3.7620590873 -3.1351469805 0.9719325431
H 2.0123507027 -2.9542050776 0.7736474165
H 2.3403441607 -2.3194395136 -1.6161843723
H 4.1024007638 -2.5379240709 -1.4311268904
H 1.3999261595 1.203265644 2.2901342791
H 0.5703470493 -0.2726944968 2.8690768891
H 3.5905268931 0.0358836469 2.4695209988
H 2.7723718574 0.1022018455 4.0383750154
H 2.782434431 -1.4061742639 3.1069068605
H -0.6536648681 1.495620559 -2.4855237807
H 0.8342176559 2.2297163149 -1.7780581021
H -4.623250972 1.4359819384 2.117208481
H -3.7465347459 -0.1176660804 2.2381258059
H -1.59855306 1.0919545488 2.4748672666
H -2.4266613992 2.6435383485 2.3164920407
H -2.7318847877 1.6186242344 3.7295202048
H -1.4752716248 -2.0978305848 -1.1361883827
H -0.3487507978 -2.145545661 0.2455451198
H -3.1858896711 -3.3024964979 0.2058644197
H -1.6875852322 -4.2407407275 0.1321379132
H -2.0949220228 -3.3340858988 1.5990283968
*
