! wb97x-v def2-tzvp def2/J RIJCOSX DEFGRID2 scfconv7 GCP(DFT/TZ) printgap
%output
    printlevel normal
end
%cpcm
    smd true
    smdsolvent "water"
end
* xyz 0 1
C 1.311392788873434 -0.7116491296980122 0.0002504480913578616
C 1.311464351364373 0.7115419011242574 0.0005276983119172387
C 0.05170213886016912 1.2445256948074532 -0.00010768115660183327
S -1.1557522816806556 7.219507222875859e-05 0.00025967019629424647
C 0.05157531513289915 -1.2445043985856792 -0.0006589530027999761
H 2.2101824456729284 -1.3173724534694253 0.0005030931082247009
H 2.210313380953997 1.3171775002532968 0.0010827324487638623
H -0.23969888532843303 2.2867224704475597 0.00012980285437953214
H -0.23993386172251893 -2.286671612354281 -0.0008790938403614048
*
