! pbe def2-sv(p) def2/J RI DEFGRID1 loosescf d4 GCP(DFT/SV(P)) printgap
%output
    printlevel normal
end
* xyz 0 1
C 1.4993220961 -3.9273131878 -1.7642997307
C 2.5352311734 -2.9046334263 -2.2036846722
O 2.3600682784 -1.673004412 -1.4813079593
C 2.9663866377 -1.5337777199 -0.3175362225
O 3.7444920628 -2.332074668 0.1526412621
C 2.5998272734 -0.2273771605 0.3643433044
C 1.1610982524 0.1782832 0.0761919075
H 1.0091468827 0.2868272552 -1.0038366932
C 0.7589009531 1.4842652849 0.7279003899
O -0.3348612148 1.6255737103 1.2441855541
O 1.6767800418 2.4003761667 0.6481033356
C 1.3624956022 3.7326026541 1.116767797
C 0.6751775395 4.5283899782 0.0198174417
S -0.0138626831 -1.1032831233 0.6655147903
P -1.8053261774 -0.1123648428 0.158757355
S -1.8808649927 1.2306881521 -1.2790954738
O -2.4876196358 -1.4964044631 -0.2865754265
C -3.8283015025 -1.5365846405 -0.7848686833
O -2.7097164664 0.1897184134 1.4409121556
C -2.9854526878 1.4740625213 1.9992688357
H 1.5950448848 -4.8228059576 -2.3690821885
H 1.6500102359 -4.1844507321 -0.7182805996
H 0.4981834467 -3.5189812989 -1.8791421622
H 2.4061896297 -2.631204187 -3.2511722978
H 3.5485645185 -3.275240879 -2.0255199162
H 3.2687850817 0.5539617909 -0.0033317833
H 2.7649592524 -0.3557059374 1.4342652135
H 0.7251979817 3.6520119147 2.0005910089
H 2.3299201745 4.1607329296 1.3773565515
H 1.3167770022 4.5973401856 -0.8539582799
H -0.2561590653 4.0453061464 -0.2710162452
H 0.4553243434 5.5266156148 0.3829409972
H -4.535733714 -1.3752503617 0.0279074924
H -3.9536588556 -2.5290779248 -1.2101737276
H -3.9652422954 -0.772386379 -1.5530169082
H -2.9147033347 2.2423674921 1.2281473169
H -2.2735720378 1.6847693605 2.7941052595
H -3.999072959 1.4170976158 2.3902853394
*
