! pbe def2-sv(p) def2/J RI DEFGRID1 loosescf d4 GCP(DFT/SV(P)) printgap
%output
    printlevel normal
end
* xyz 0 1
C 4.5424453843 -0.9683707518 -2.2000555197
C 3.8192282363 -2.0044909679 -1.3640559695
O 3.345007159 -1.4759474136 -0.112174303
P 2.4103892109 -0.2117688747 0.052046946
S 3.2175031019 1.5779070747 -0.0440736224
O 1.8480662453 -0.59278748 1.4807774139
C 1.5691283457 0.3543156798 2.5335720907
C 0.2757910954 -0.0431405852 3.2148077975
S 0.8582188073 -0.5843728817 -1.3652296748
C 0.2504749017 1.1141116091 -1.4788023723
S -0.6861339629 1.6303696928 -0.0185706224
P -2.2955657653 0.2760158432 -0.2935146823
S -2.8365754507 -0.0505093712 -2.1418400869
O -3.4937213876 0.8611853627 0.5577954003
C -3.5216499504 0.9795462242 2.0018526584
C -2.9644558741 2.3115456244 2.4609462768
O -1.7532717041 -0.9919231068 0.5198119311
C -1.9631950856 -2.3449094514 0.0792464939
C -3.3690588161 -2.8082316184 0.4018244749
H 5.3435715609 -0.5100440896 -1.6248844769
H 4.9593156104 -1.4431301131 -3.0824594879
H 3.8510781435 -0.1864499743 -2.5118353479
H 4.4894028627 -2.8115335909 -1.0625412731
H 2.9659590097 -2.4169550448 -1.9099403297
H 2.4117873533 0.3117480774 3.2276041817
H 1.5091337793 1.3628047228 2.1110453765
H 0.3683939655 -1.0407875879 3.6338098349
H 0.0587023418 0.665503691 4.0071174924
H -0.5379663299 -0.0391428889 2.4949867002
H -0.3942474028 1.1584729621 -2.3561452437
H 1.0953984596 1.7989301851 -1.5631257083
H -4.5812632049 0.8896562002 2.247110141
H -2.9688352994 0.1443641072 2.4375352301
H -1.9071431065 2.3938635093 2.2171320307
H -3.495730032 3.1252778529 1.9750646812
H -3.0887642873 2.3944680933 3.5360956569
H -1.7741574169 -2.3973055563 -0.9975609897
H -1.2068755231 -2.9223302196 0.6131256561
H -4.0893703348 -2.1848153357 -0.1274891623
H -3.4913380676 -3.8376599333 0.0805902356
H -3.5580645289 -2.7392480794 1.4698471961
*
