  29
        -36.61317256
 C         -4.5539814055        0.8002497442       -0.2117623395
 C         -3.0477846873        0.8395143507        0.0179055004
 C         -2.4330978673       -0.5582777169        0.0056045188
 C         -0.9232697502       -0.5228262474        0.2328690448
 C         -0.3084992311       -1.9197467344        0.2007952276
 C          1.1811459733       -1.9397898352        0.5419581647
 C          2.0542263306       -1.2454121525       -0.5083964685
 C          1.9747633653        0.2578905233       -0.4809674519
 O          1.8963107178        0.9612036302       -1.4694210351
 O          2.0550274141        0.7499811530        0.7497399622
 C          2.0089229043        2.1694728842        0.8973430218
 H         -4.9688414942        1.8050582010       -0.1999868511
 H         -5.0417237908        0.2165973392        0.5655871513
 H         -4.7800047470        0.3459960806       -1.1738158502
 H         -2.5767126741        1.4452660884       -0.7602740372
 H         -2.8396572016        1.3157233928        0.9788722849
 H         -2.9014897479       -1.1646278690        0.7842578440
 H         -2.6414522051       -1.0339655824       -0.9555935515
 H         -0.7147744543       -0.0585640495        1.2000742110
 H         -0.4665521747        0.0989000695       -0.5414247836
 H         -0.8345825227       -2.5487094983        0.9222616504
 H         -0.4591938567       -2.3552599979       -0.7895387046
 H          1.3438206895       -1.4660348498        1.5105470415
 H          1.5045212412       -2.9791294670        0.6130133478
 H          3.1007774175       -1.4972313596       -0.3218665898
 H          1.7952677286       -1.5768997886       -1.5145419592
 H          2.2441733124        2.3650838600        1.9387825625
 H          1.0118230271        2.5354900831        0.6479452456
 H          2.7354422360        2.6398959617        0.2335379737
