! pbe def2-sv(p) def2/J RI DEFGRID1 loosescf d4 GCP(DFT/SV(P)) printgap
%output
    printlevel normal
end
* xyz 0 1
C 2.9383108454 2.3098818512 -1.2769274752
C 3.6089311484 1.5822571107 -0.1291072519
O 3.1681494658 0.2104416001 -0.0674622735
P 2.1683092995 -0.3582672842 1.0462699709
S 1.3672272908 0.9733191497 2.2269899075
O 3.0157120118 -1.3766624503 1.9132070776
C 3.7980514724 -2.4605435617 1.3539808549
C 3.1118634737 -3.7882668799 1.6052658868
S 0.9618185094 -1.640809639 -0.1342534197
C 0.443901995 -0.4789856105 -1.4321801387
S -0.4681337171 0.9642019599 -0.8324475543
P -2.4765065631 0.269118575 -1.039707733
S -2.7104467885 -1.545688788 -1.7301809111
O -3.1505993489 1.330415866 -1.9925097329
C -2.8781972529 2.7510268358 -2.0449539512
C -3.0037861923 3.4241463177 -0.695669267
O -3.2022710983 0.5595432714 0.3488922093
C -3.346242565 -0.4190615182 1.3869974698
C -2.0196442691 -0.8009716825 2.0098946868
H 1.8629800978 2.3570068211 -1.1125082852
H 3.3301559236 3.3203601233 -1.3297948982
H 3.1373515089 1.8018239747 -2.2167160002
H 3.3829289259 2.0708655375 0.8237275887
H 4.6900638768 1.527547481 -0.2679167535
H 3.9464273103 -2.2828297465 0.2864422036
H 4.7564590025 -2.4073795778 1.8733063602
H 2.1573565357 -3.8284836562 1.084502371
H 3.7472993496 -4.5913599358 1.2458151296
H 2.9345817687 -3.9182446205 2.6691394896
H -0.1982845858 -1.0584299436 -2.0977414338
H 1.3259194409 -0.1086419059 -1.947108897
H -1.8751428843 2.8895203253 -2.4564585659
H -3.6233017891 3.1198417257 -2.7513737672
H -3.982416173 3.2287557803 -0.2651417226
H -2.2400454579 3.0506985276 -0.0146406021
H -2.8708732163 4.494646755 -0.8182049046
H -4.003587555 0.0641301107 2.1113267802
H -3.8382890004 -1.3023392957 0.9669502115
H -1.4671347579 0.0849820541 2.3181234515
H -2.1935794951 -1.4284177703 2.8780793599
H -1.4198809338 -1.3622584353 1.2936370008
*
