! pbe def2-sv(p) def2/J RI DEFGRID1 loosescf d4 GCP(DFT/SV(P)) printgap
%output
    printlevel normal
end
* xyz 0 1
C 1.7045053301 -0.9745809677 -2.9720541421
C 2.6145668223 -0.3929475091 -1.9105051882
O 1.8025263374 0.3130448554 -0.9312838913
P 1.9677229537 0.1125445175 0.6170283576
S 0.8222893279 1.2756170205 1.6940460701
O 3.5270590438 0.3277561495 0.8153160498
C 4.1343315602 0.2787360491 2.1244928907
C 5.5332665382 0.8474269725 2.0060414486
S 1.726265154 -1.9597135483 1.015381225
C -0.0742072567 -1.9432966757 1.1764419583
S -0.9431258281 -1.8351905871 -0.4234840039
P -1.8717073929 0.072529298 -0.450826395
S -1.0340816199 1.6108637324 -1.3424117167
O -2.2720156561 0.199926841 1.0719703748
C -2.6731082175 1.4564452638 1.656115212
C -3.9675707271 1.9656019527 1.0617006363
O -3.2591643097 -0.3177270456 -1.1266358968
C -3.4863843134 -0.2978082139 -2.5466902932
C -4.9569875836 -0.0181253584 -2.7869136724
H 2.3104578944 -1.3978587733 -3.7663749206
H 1.0707941644 -1.7516415071 -2.5502490182
H 1.070012704 -0.1912332204 -3.3796763966
H 3.2940750874 0.3515865303 -2.3274844064
H 3.1883280675 -1.1722085112 -1.401732409
H 3.5175920688 0.8626025559 2.8152916893
H 4.1506909076 -0.7641402555 2.4517633954
H 6.014494939 0.8117656637 2.9777499683
H 6.1117152832 0.2650143539 1.2950058728
H 5.4895478763 1.877867241 1.6645181228
H -0.3729559596 -1.1038932111 1.8045559868
H -0.3525151039 -2.8954375844 1.619625475
H -2.7704930746 1.2263810239 2.7180276527
H -1.8617952839 2.1781737328 1.5150202326
H -4.7377341695 1.2019464893 1.1318225437
H -4.283216894 2.8538553087 1.5997982697
H -3.8147728117 2.221635634 0.0138450124
H -2.8528253809 0.4779002394 -2.9910803304
H -3.1967088762 -1.2732329911 -2.9460713466
H -5.562047099 -0.7696648611 -2.288384096
H -5.2217509908 0.9617971373 -2.3996011801
H -5.1536027537 -0.0458567551 -3.8535540236
*
