! pbe def2-sv(p) def2/J RI DEFGRID1 loosescf d4 GCP(DFT/SV(P)) printgap
%output
    printlevel normal
end
* xyz 0 1
C 4.8302025901 -2.5198184404 -1.5721981567
C 3.9304740071 -1.3012994309 -1.6106673813
O 2.9618560612 -1.4332729731 -0.5498288086
P 2.0686772711 -0.2041807592 -0.090423189
S 3.0511749646 1.4481010013 0.3102642412
O 1.24893939 -0.8564159396 1.0922915062
C 1.551722832 -0.5937163995 2.4759514412
C 2.8089279433 -1.3191247255 2.9064229736
S 0.6259828077 -0.074211041 -1.6290359323
C 0.0246487658 1.5861927571 -1.2229520928
S -0.6966044497 1.6993531504 0.4390369404
P -2.2838635011 0.3483813942 0.1195526007
S -3.0834517149 0.2666936173 -1.671592892
O -3.3274523068 0.6692439354 1.2780050967
C -4.4027419668 1.6101239539 1.1103940863
C -3.9001909277 3.0348828437 0.9977167854
O -1.6239361831 -0.9764147047 0.6806802628
C -2.152179311 -2.2927252655 0.3994031801
C -1.2906823039 -2.9909153205 -0.6342296138
H 5.356370552 -2.5677752252 -0.6231842734
H 4.2365100765 -3.421276911 -1.6920970113
H 5.5522844631 -2.4540443098 -2.3793461714
H 3.3920612192 -1.2314206685 -2.5599868985
H 4.4955985057 -0.3767744745 -1.4517283172
H 1.6589458854 0.4876861399 2.6124581368
H 0.6683838382 -0.9451197147 3.0110486002
H 2.9742815602 -1.1589371858 3.9671425346
H 2.7159696661 -2.3834764713 2.7082945883
H 3.6619618628 -0.9304889263 2.3510829605
H -0.7297918516 1.8294357131 -1.970086772
H 0.8532750363 2.2932957106 -1.2449509774
H -4.9690328918 1.3302469908 0.2162665901
H -5.0167585822 1.4670948035 2.0004648475
H -3.248051123 3.2734738275 1.8341956099
H -3.3409469353 3.1602294735 0.0713843192
H -4.7458936818 3.7149777871 0.9928889741
H -2.1316891118 -2.8152916262 1.3570817545
H -3.1853210485 -2.2016871341 0.0516922598
H -1.3607789124 -2.477715302 -1.5913180095
H -0.2513501567 -2.9865418528 -0.3139364421
H -1.6296717704 -4.0150183655 -0.7524603851
*
