! wb97x-v def2-tzvp def2/J RIJCOSX DEFGRID2 scfconv7 GCP(DFT/TZ) printgap
%output
    printlevel normal
end
* xyz 0 1
C -2.744351798690394 -0.2571453744332617 -0.007945377567229421
C -2.3568297507740423 1.0977505415629942 0.01701219777325211
C -1.0231631574894362 1.4388817438798278 0.025547976982994516
C -0.013692409798600435 0.4458898853440305 0.0062148924317562936
C -0.4073090605146989 -0.9325673467497066 -0.004212420702513935
C -1.7895775899776858 -1.2456372395799535 -0.015702606283119945
C 0.5756992065460431 -1.9516172242290848 0.0007928848391229152
C 1.9084611920176913 -1.611160847042502 0.012910065445440889
C 2.313323004847015 -0.26631494946428996 0.01066801559326269
C 1.3847389880017442 0.7650956999766766 0.005283884066211388
N 1.8054701466701661 2.08576268843415 0.06407697107518888
H -3.798283379885955 -0.5165537755722656 -0.016403095321296995
H -3.1133912781266977 1.87555018874933 0.033267848084604874
H -0.756791574679791 2.4898340819448923 0.056500605673968994
H -2.081182932528387 -2.292182030408451 -0.028127586725019426
H 0.2607669538606255 -2.9904305947535845 -0.005508877151464412
H 2.668301028835047 -2.3868823416038967 0.015036080550262837
H 3.371906300595239 -0.021839946665166126 0.008858385376052512
H 2.772060877638257 2.2169261243003446 -0.19865657556582145
H 1.2033470763203973 2.7611001478128427 -0.3828492823523889
*
