! r2scan-3c def2/J RI DEFGRID2 scfconv6 printgap
%output
    printlevel normal
end
%cpcm
    smd true
    smdsolvent "water"
end
* xyz 0 1
C 5.5177475599 -1.1053536066 -1.4111974031
C 4.098990077 -1.3250525646 -1.8995838384
O 3.2027889354 -1.5300344794 -0.7876327579
P 2.3508615799 -0.3480993333 -0.1509975499
S 3.340699159 1.2702979744 0.3577986188
O 1.6218241912 -1.1057362515 1.0278377871
C 2.1382147788 -1.1105817067 2.3826747256
C 0.9947308724 -0.9018112569 3.35400401
S 0.8004184214 -0.0678212514 -1.5566327156
C 0.1863786245 1.4936620181 -0.864525342
S -0.7744978067 1.2589426877 0.6447207062
P -2.434043826 0.307020679 -0.3100819675
S -2.9402112825 1.0269090403 -2.0542199262
O -3.5628490999 0.3100990955 0.8082025547
C -4.4870631569 1.4015260335 0.9760277278
C -3.801437465 2.6776486625 1.4182051034
O -2.0388560976 -1.2166989145 -0.3961697593
C -1.7110380181 -2.0177889103 0.7651713361
C -2.8860911257 -2.8911708464 1.1525334212
H 5.5763141393 -0.1926615887 -0.8222647105
H 5.8333575169 -1.9421080967 -0.7945541358
H 6.1803339076 -1.0177147923 -2.2661354462
H 4.0175688803 -2.2382403253 -2.4919928179
H 3.7508378833 -0.4749159065 -2.4931528375
H 2.6225094799 -2.0771712359 2.5329004611
H 2.8823367184 -0.3124493308 2.4760697216
H 0.2773295176 -1.7129920035 3.2723518514
H 1.3934481141 -0.8777269543 4.3631442848
H 0.4956839905 0.0418308494 3.1459895775
H -0.4469156173 1.9454920612 -1.628389892
H 1.0318850025 2.1351538095 -0.6129977493
H -5.0117450223 1.5554431332 0.0283669506
H -5.1836300654 1.0365835416 1.7321434758
H -3.1843176389 2.4941250351 2.2941670323
H -3.1703324218 3.0593868842 0.6171370359
H -4.5535814163 3.4228963914 1.6563278805
H -0.8478502309 -2.6131413412 0.4586154092
H -1.4251007036 -1.3517129555 1.5834503368
H -3.7273276367 -2.2736402578 1.4559189455
H -3.1874748429 -3.5043046843 0.30766857
H -2.5959984073 -3.5345284147 1.9773734746
*
