! pbe def2-sv(p) def2/J RI DEFGRID1 loosescf d4 GCP(DFT/SV(P)) printgap
%output
    printlevel normal
end
* xyz 0 1
C 4.4543619617 -2.3269033407 -0.760956469
C 5.0195237813 -0.9251641051 -0.6630452319
O 4.1307945932 -0.0211421498 0.0203473377
P 2.7099380205 0.3854204951 -0.5594504431
S 2.6080892701 0.6722234593 -2.4953663601
O 2.3819711658 1.7143739397 0.2240539952
C 2.8072830383 2.0463090797 1.5685711552
C 2.2274257245 1.1130674953 2.6096734004
S 1.3789225746 -1.1191568595 0.1541654727
C -0.0366951879 -0.5935786251 -0.8250303843
S -0.8094710592 0.9216207108 -0.1468258554
P -2.7518104254 0.1540685929 0.1657668837
S -4.0373303334 1.3262913988 1.0629414755
O -2.5599136592 -1.2812775236 0.835679053
C -2.5601598102 -1.4658878026 2.2611560837
C -1.3265307463 -0.8695145903 2.9072576485
O -3.0828829149 -0.2500031666 -1.3345689705
C -4.43768617 -0.4506455492 -1.7883278965
C -5.0742106891 -1.6706250956 -1.1561412959
H 5.214508614 -2.9903178778 -1.160862608
H 4.1436417933 -2.6813148109 0.2184592185
H 3.5939582539 -2.3358321943 -1.4280874797
H 5.2213687139 -0.5216230451 -1.6598704038
H 5.9278920824 -0.8973169461 -0.059472411
H 3.8985805727 2.0337291509 1.5932724541
H 2.4419227448 3.066492846 1.6962198902
H 2.6242860938 0.1082199588 2.482496845
H 2.4936118465 1.4773628345 3.5969199171
H 1.1442382708 1.0818234062 2.5222133754
H -0.7632046027 -1.4008224267 -0.8143553041
H 0.2996165117 -0.3708993533 -1.8385752595
H -3.4670501185 -1.0069196333 2.6676689218
H -2.599121904 -2.5486350313 2.3863588678
H -0.4252334649 -1.2759178643 2.4528837111
H -1.3359816577 0.2132369417 2.7798031127
H -1.3286527117 -1.0976933534 3.9680550538
H -5.0156184002 0.4496352528 -1.5569213753
H -4.3354082376 -0.5582792205 -2.8690409075
H -4.4483024617 -2.5457524369 -1.3094819168
H -5.2020143062 -1.5087188793 -0.0867389366
H -6.0478511146 -1.8394012755 -1.6053622999
*
