! pbe def2-sv(p) def2/J RI DEFGRID1 loosescf d4 GCP(DFT/SV(P)) printgap
%output
    printlevel normal
end
* xyz 0 1
C 4.0626062011 -1.4879285845 -2.4849981692
C 4.0781410038 -0.0483449141 -2.0145378267
O 3.4320926041 0.1199484795 -0.7381654199
P 1.8746536623 -0.1025828827 -0.5269491602
S 0.7294717338 0.5671545434 -1.9603257439
O 1.6042097549 0.5994434533 0.8578903405
C 2.3425307115 0.3122506695 2.0716844384
C 3.4568524769 1.3171775749 2.2723574151
S 1.6950357489 -2.1816146768 -0.1216823197
C -0.1105096489 -2.2318092489 -0.1482362311
S -0.8832680889 -1.4547144239 1.3165209524
P -1.8735002978 0.2632096072 0.5819274565
S -1.1187091088 2.0711000314 0.7352280448
O -3.2538861904 0.1450818593 1.3732293651
C -3.6341972109 0.9541953246 2.4989456676
C -4.9266578467 1.6807370295 2.1791561519
O -2.2716399786 -0.257762616 -0.8563380862
C -2.8813666344 0.6256992167 -1.825321709
C -2.7582184197 -0.0226292161 -3.1873923635
H 4.443203466 -2.1451440784 -1.7072497982
H 3.046755997 -1.78932594 -2.7343049012
H 4.6832784165 -1.5788969795 -3.370604925
H 3.5789590691 0.6008452835 -2.7403950065
H 5.0942863606 0.3070064322 -1.8374803967
H 1.5936365921 0.3814586415 2.8639345807
H 2.7291518797 -0.7096283214 2.0174150782
H 3.0503970489 2.3253179153 2.2639356075
H 3.933173423 1.1292541003 3.229473021
H 4.1935142055 1.2282393066 1.4784115729
H -0.3906933492 -3.2813057048 -0.1273160074
H -0.4758171392 -1.7361091868 -1.0467249552
H -3.7558785582 0.2710170371 3.341765999
H -2.8310640846 1.6673882439 2.7120484443
H -5.6957096181 0.967201777 1.897380367
H -5.2501857245 2.2332429656 3.0551497065
H -4.7683795663 2.3761768254 1.3580248898
H -3.9251399055 0.7681932328 -1.535500047
H -2.3608574049 1.5890689588 -1.7922527262
H -3.2183766861 -1.0063014516 -3.1740195781
H -3.2561261643 0.6014505891 -3.9219308688
H -1.708778251 -0.1196042071 -3.4554003178
*
