  26
        -33.45279735
 C          4.7489267489       -0.7318908327        0.4272536816
 C          3.4815196855       -0.5556353600       -0.4007636788
 C          2.4182510636        0.2420605750        0.3513292886
 C          1.1471786877        0.4228046708       -0.4745255775
 C          0.0886876827        1.2258709184        0.2789123214
 C         -1.2015228609        1.3685612573       -0.5235241939
 O         -1.8089729877        0.0928469392       -0.7697491186
 C         -2.6331006634       -0.4032054518        0.1464484054
 O         -2.9254497278        0.1784528709        1.1714508532
 C         -3.1471422796       -1.7549518401       -0.2490621638
 H          4.5290890038       -1.2599821137        1.3524189870
 H          5.4911389259       -1.3019135338       -0.1259473988
 H          5.1762285357        0.2358653687        0.6797781076
 H          3.0786373451       -1.5369498913       -0.6608637337
 H          3.7257763981       -0.0407283138       -1.3323578356
 H          2.8213122481        1.2232178890        0.6121670002
 H          2.1742683500       -0.2723412139        1.2839014500
 H          0.7383903069       -0.5562433887       -0.7334932089
 H          1.3908111449        0.9372295243       -1.4063661485
 H          0.4641899745        2.2261326835        0.4967427163
 H         -0.1433288743        0.7387314994        1.2290746133
 H         -1.9167526465        1.9972486928        0.0158858194
 H         -1.0050586332        1.7793944801       -1.5144701661
 H         -2.6277946872       -2.5072242569        0.3407879865
 H         -2.9620527395       -1.9276680599       -1.3035777330
 H         -4.2065926802       -1.8202452853       -0.0200188607
