! pbe def2-sv(p) def2/J RI DEFGRID1 loosescf d4 GCP(DFT/SV(P)) printgap
%output
    printlevel normal
end
* xyz 0 1
C 4.1087308591 1.0486339135 -2.0976764945
C 2.7498425016 0.4040212319 -2.2806315315
O 2.4391092847 -0.487584929 -1.1963950812
P 2.0742596684 0.0382043265 0.2638229966
S 1.3712960729 1.8478650082 0.4638950159
O 3.4250769931 -0.0666836879 1.1027225909
C 4.1991260998 -1.2879294598 1.1729232551
C 4.1215524384 -1.8758046179 2.5681432464
S 0.9100575078 -1.5960962389 0.9271690614
C -0.4045331178 -0.6908004825 1.8152651864
S -2.0599939165 -1.0034626456 1.1603869778
P -2.0200681056 0.3035984725 -0.5218177416
S -0.6941427357 -0.0984954723 -1.9094287155
O -1.8401661233 1.7593827557 0.055137865
C -2.884841466 2.5993120588 0.605758461
C -3.5029055501 2.0253632393 1.8631318625
O -3.5245574768 0.3034344736 -1.0275643642
C -4.0224205612 -0.662001765 -1.9717692119
C -4.0162593813 -2.0681873529 -1.4094135529
H 4.1099826534 1.6521711476 -1.1897417967
H 4.8797941469 0.2866370909 -2.0182215255
H 4.3195845307 1.6888293293 -2.9484139382
H 2.709777655 -0.2334952386 -3.1650582665
H 1.9606719343 1.1599387867 -2.3474777797
H 3.8288483637 -1.9919707922 0.4218675468
H 5.2204432543 -0.992031179 0.925920089
H 3.1090709082 -2.2058433473 2.7859259139
H 4.7937796827 -2.7254538376 2.6319552458
H 4.4154386332 -1.1281291742 3.2994244402
H -0.1818462363 0.3788335006 1.7641986289
H -0.4203682317 -1.0487861305 2.8408323094
H -2.3609680237 3.5358947376 0.8049996458
H -3.6399784013 2.750421357 -0.1676226599
H -2.7358534202 1.8227613129 2.6064597562
H -4.2046733387 2.7486534792 2.2669238882
H -4.0332948673 1.1026157707 1.639406852
H -5.034520486 -0.315224463 -2.1850297356
H -3.4092554388 -0.6068427369 -2.8765741818
H -4.5100484993 -2.7358009625 -2.1081513555
H -2.9905746561 -2.405666158 -1.2656644702
H -4.5317621573 -2.0981830702 -0.452859504
*
