! pbe def2-sv(p) def2/J RI DEFGRID1 loosescf d4 GCP(DFT/SV(P)) printgap
%output
    printlevel normal
end
* xyz 0 1
C 3.3216920622 -1.564243469 1.5938353446
C 3.0448156635 -2.1923476942 0.2383657102
O 2.7080305312 -1.1749296485 -0.7234902036
C 1.4665231914 -1.0403736088 -1.1251380197
O 0.5363599937 -1.7353761729 -0.7612045638
C 1.3211598496 0.0794507452 -2.1336955843
C 0.1760607705 1.0165544856 -1.7623879692
H 0.0433252254 1.7665854963 -2.5485333432
C 0.3653390069 1.7560456572 -0.4494207376
O -0.569659917 2.2394909792 0.1601216403
O 1.6180208341 1.8360904252 -0.0967074695
C 1.9382419439 2.5026804198 1.1425140589
C 3.4333000695 2.7456828383 1.1651246192
S -1.4457574502 0.1750376582 -1.6880124155
P -1.6703866633 -0.3146518138 0.3747606088
S -0.26881656 -0.3924546807 1.7402804693
O -2.8017902618 0.6589116242 0.9079912655
C -4.040483256 0.900102979 0.220496629
O -2.5409533368 -1.6553233745 0.261176256
C -2.0289208229 -2.9519917203 -0.0461958466
H 3.6232974262 -2.3381910625 2.2915525279
H 4.1149986498 -0.8274873125 1.5101339594
H 2.4224805612 -1.0812096278 1.9727554959
H 2.2179238822 -2.904806386 0.3003215052
H 3.9363002639 -2.6782952179 -0.1619773428
H 1.098061783 -0.369284161 -3.1034535367
H 2.2572221401 0.6338148992 -2.1844307084
H 1.363257185 3.4320520579 1.193430364
H 1.6143380729 1.8501341111 1.9601112566
H 3.9600622207 1.8023781538 1.0598528504
H 3.7199266656 3.4045231768 0.3510522065
H 3.7038118893 3.2032741594 2.1104611002
H -4.5379699262 1.6729164982 0.8005972359
H -4.633213518 -0.0128787171 0.1965695454
H -3.8440146047 1.248093481 -0.7939815623
H -2.8492660278 -3.6383513337 0.1490890155
H -1.1745026187 -3.1782204764 0.5910361136
H -1.7220933093 -2.9949448135 -1.0900207152
*
