  11
        -20.20960205
 C         -1.6777484640        1.1770209538       -0.0001033602
 C         -2.3076781229       -0.0600013822        0.0000366333
 C         -1.5194861075       -1.1984371433       -0.0000460440
 N         -0.1935499932       -1.1626340658       -0.0000075934
 C          0.3837032106        0.0186138983       -0.0000899643
 C         -0.2934331143        1.2294122837       -0.0001087864
 Cl         2.1194116783        0.0094841156        0.0000261156
 H         -2.2527054777        2.0896377623        0.0003779978
 H         -3.3817739687       -0.1391170522        0.0006535063
 H         -1.9481113413       -2.1899124095        0.0005593845
 H          0.2463159273        2.1607374022        0.0013081792
