! r2scan-3c def2/J RI DEFGRID2 scfconv6 printgap
%output
    printlevel normal
end
%cpcm
    smd true
    smdsolvent "water"
end
* xyz 0 1
C 0.848633244 1.3900916638 -0.5828872168
C 1.5965942498 0.1595491527 -0.0524300703
H 2.5540971839 0.0978426043 -0.5871323809
C 0.7664391701 -1.1152801519 -0.3411631365
H 1.1963916783 -1.9640558221 0.2116468972
C -0.6730825973 -0.9138024272 0.1656519085
H -1.2896550206 -1.7643323578 -0.1411907592
C -1.2615037739 0.368488988 -0.4576768775
H -1.2774511461 0.2742741361 -1.5545890501
O -0.4661305775 1.4796428385 -0.079789748
O -2.5565246871 0.5947973474 -0.0469899996
O -0.7400233693 -0.8471515218 1.5658511802
O 0.7019695909 -1.3878834305 -1.7188641632
O 1.8093598529 0.3317456462 1.3317861751
H 0.8271205059 1.3462693763 -1.6795142223
H 1.3468165373 2.2996278753 -0.2472479605
H -2.5910728326 0.5298728777 0.9233017221
H -0.1284397795 -0.1477230194 1.8635120123
H 1.5413150917 -1.7633667454 -2.0230806431
H 2.4660061057 -0.3030488812 1.6515524
*
