! pbe def2-sv(p) def2/J RI DEFGRID1 loosescf d4 GCP(DFT/SV(P)) printgap
%output
    printlevel normal
end
* xyz 0 1
C 4.9106970935 -0.1385936357 -2.1771070694
C 3.8122777932 -1.1766973123 -2.2660670213
O 3.1076751041 -1.3211921085 -1.0166412246
P 2.136623097 -0.2078451075 -0.4440791606
S 1.1165158347 0.7325040853 -1.8404582694
O 3.1395702238 0.6671620593 0.4154366246
C 2.8096332123 1.8588905106 1.1502896618
C 2.5892522932 1.5394478709 2.6150451965
S 1.0742061818 -1.400034955 0.9243668568
C -0.2840172288 -1.8963611403 -0.1945201864
S -1.9230068524 -1.6734526585 0.5290138042
P -2.1060036239 0.4484273805 0.3643916118
S -0.7451139347 1.5676569487 1.2136704458
O -3.6063291491 0.6760326529 0.8341462536
C -4.197529265 0.1204628709 2.0248624482
C -3.3812235252 0.3955762776 3.2697332983
O -2.1842758544 0.8176290114 -1.1639556329
C -3.1758158386 0.3362732631 -2.1043814907
C -2.6322361202 -0.8185247011 -2.9233197389
H 5.5697824464 -0.3603257202 -1.3420751791
H 5.4813051354 -0.1367298936 -3.100538691
H 4.4746108617 0.8482803645 -2.0275584169
H 4.2103173184 -2.1741027379 -2.4563345618
H 3.0880195125 -0.9063619638 -3.0414181659
H 3.672034038 2.5143103341 1.0129383992
H 1.9214390449 2.3257691339 0.7138122551
H 3.4418124272 0.9937607137 3.0091563195
H 2.4627842847 2.4668647652 3.163661522
H 1.6906666412 0.9389376187 2.7384374453
H -0.1918464053 -2.9598026688 -0.3982621179
H -0.2047563142 -1.3019719942 -1.1085783001
H -5.1751222799 0.6034815705 2.0732253887
H -4.3189535382 -0.9554115822 1.8720522235
H -2.4151547141 -0.1036838425 3.2036406439
H -3.2076396342 1.4633905222 3.381923642
H -3.9129554622 0.0230123168 4.1392250213
H -4.0788467411 0.0558502704 -1.5592707437
H -3.3786869262 1.202977865 -2.7356126957
H -1.6602419158 -0.5510901309 -3.3327467397
H -2.5315155191 -1.7140120716 -2.3148651638
H -3.3162458527 -1.0236168899 -3.7406378235
*
