! pbe def2-sv(p) def2/J RI DEFGRID1 loosescf d4 GCP(DFT/SV(P)) printgap
%output
    printlevel normal
end
* xyz 0 1
C 4.4590917084 1.0392024907 -1.6477810882
C 3.2143077278 0.3427643212 -2.1539990478
O 2.7155354447 -0.6095978285 -1.1895309124
P 2.0410807788 -0.162031746 0.163837002
S 1.1859681588 1.6111360433 0.1684211161
O 3.2342471003 -0.2559371015 1.2067621717
C 3.0947574765 0.170456261 2.5763509129
C 4.4846912492 0.3164417447 3.1609586361
S 0.9550657277 -1.9173630884 0.6265368106
C 0.042362163 -2.1694529139 -0.9361312777
S -0.5540630232 -0.6520202923 -1.7227160267
P -2.0657301444 -0.0950688734 -0.3451178484
S -1.7385139762 0.0104024532 1.5886437713
O -3.1133419038 -1.2058311709 -0.7650528406
C -4.2388050735 -1.5604727055 0.0639551714
C -5.2867199605 -0.4679663049 0.0793817027
O -2.6374784427 1.2143739845 -1.0321291451
C -2.2799085178 2.5645117604 -0.6732084494
C -3.3066680365 3.1508128462 0.276004223
H 4.2110870254 1.6446734139 -0.7766358382
H 5.210117699 0.3068495611 -1.3641944922
H 4.8543514201 1.6844605046 -2.4259045304
H 3.4143961405 -0.2629420287 -3.0383411586
H 2.4213163337 1.0662619202 -2.3688949536
H 2.5464840504 1.1190194977 2.5935200745
H 2.5106990505 -0.5830551314 3.1126634895
H 4.402280215 0.6082900955 4.2026930743
H 5.0143848258 -0.6290124049 3.0909423967
H 5.0415014539 1.0747252184 2.6180431976
H -0.7966461868 -2.8196624313 -0.6965733071
H 0.709741953 -2.6366802619 -1.6566342555
H -4.616642159 -2.4792421593 -0.3866472655
H -3.8739731149 -1.7602219909 1.0768226824
H -6.1618266384 -0.8148823075 0.6198954164
H -4.8894340024 0.4153963958 0.5765362945
H -5.567472715 -0.2038706745 -0.9367984022
H -1.2830159619 2.5776684642 -0.2247383227
H -2.2561254054 3.1045475854 -1.621261093
H -3.2974096477 2.606261811 1.2181654386
H -3.0570797643 4.1890351557 0.4692381128
H -4.2992498026 3.09292572 -0.1623328905
*
