! pbe def2-sv(p) def2/J RI DEFGRID1 loosescf d4 GCP(DFT/SV(P)) printgap
%output
    printlevel normal
end
* xyz 0 1
C 5.5521457252 -0.0739025152 -1.904729813
C 4.0475469423 -0.2400706629 -1.8386267624
O 3.6197661866 0.1242562362 -0.5115431167
P 2.0753910765 0.3177082569 -0.1685316328
S 1.1591770459 1.6125641234 -1.3088597022
O 2.1342760617 0.7555549211 1.3342979484
C 2.6610932901 -0.068514035 2.4035946787
C 4.0957229144 0.3063697647 2.7090138594
S 1.3404343769 -1.6873626602 -0.259384469
C -0.0068569746 -1.4974991396 -1.4664151418
S -1.6439650946 -1.9219898303 -0.8151930284
P -2.0822046304 -0.2160454624 0.3347940584
S -0.9376668115 0.3023372295 1.8314136108
O -3.5413450726 -0.533137896 0.8639265195
C -4.6276673197 -0.8973238319 -0.0267150779
C -5.9282642764 -0.4782639909 0.62728854
O -2.2097149796 0.8570130835 -0.8451844352
C -2.167223475 2.2710209942 -0.5879713726
C -3.4538557468 2.7581319812 0.0447297783
H 5.8953300943 -0.3381324339 -2.8994723362
H 5.8226465757 0.9568119774 -1.6936620516
H 6.0310900591 -0.7209634517 -1.1756738993
H 3.7515796381 -1.2773439958 -2.0205559232
H 3.5394805507 0.4108728511 -2.5577920016
H 1.9963550952 0.1317578278 3.2465914872
H 2.5743429278 -1.1204283143 2.1167119051
H 4.7268183427 0.1113116328 1.8460916156
H 4.1578880751 1.3618781605 2.958822643
H 4.4427725563 -0.283681789 3.551327592
H 0.1723616746 -2.2058046934 -2.2710900029
H -0.0101788801 -0.4664371348 -1.8315856536
H -4.479711456 -0.3986790398 -0.9880737676
H -4.5831431396 -1.9790478072 -0.1710572371
H -5.956831359 0.5997111383 0.7606406655
H -6.7568063131 -0.7844181439 -0.0031618727
H -6.0214967394 -0.9519250691 1.600253922
H -1.3100762719 2.4839181744 0.0595247406
H -1.9908649898 2.7150424129 -1.568877888
H -3.3992636361 3.833445626 0.1822737665
H -4.3020397433 2.519017037 -0.5916614216
H -3.5865783619 2.2834432411 1.0169223103
*
