  5
        -12.43317672
 C         -0.5746110547       -0.6407071867       -0.0000012481
 F         -1.5158102793        0.3445547782       -0.0000061263
 Cl         1.0466446712        0.1019009877       -0.0000001986
 H         -0.6979767707       -1.2220310295       -0.9150031163
 H         -0.6980646431       -1.2218137927        0.9151404543
