! pbe def2-sv(p) def2/J RI DEFGRID1 loosescf d4 GCP(DFT/SV(P)) printgap
%output
    printlevel normal
end
* xyz 0 1
C 1.5558095894 -2.8954197179 -1.0351616251
C 1.7546055748 -1.6701751237 -1.9023831256
O 1.4603322467 -0.4333400838 -1.2030107207
P 2.2548692281 0.1364971466 0.0344215771
S 2.1637675013 2.0907236137 0.164625619
O 3.7044548129 -0.4741344067 -0.166903544
C 4.8641879749 0.0581862283 0.498603797
C 4.8154864907 -0.1623244462 1.9961984169
S 1.4733596258 -0.8512885929 1.7519438303
C -0.1683217536 -0.1054026601 1.6854679383
S -1.3161064144 -1.0636425335 0.6415469372
P -2.2344020393 0.5816519773 -0.3449192574
S -1.0749747255 1.6672251805 -1.4952188675
O -2.8632048715 1.4547472513 0.8129033549
C -4.1510720158 1.2275068698 1.4418670001
C -4.2146232149 -0.0796458085 2.203545604
O -3.5046190323 -0.0546497994 -1.0524230011
C -3.4391892041 -0.6033734801 -2.3820089148
C -2.4997697985 -1.7884740679 -2.4595593129
H 2.2868893567 -2.9106294597 -0.2298235065
H 0.5571003388 -2.9030380239 -0.6041985423
H 1.6857541479 -3.7811998807 -1.6489423287
H 1.0568138512 -1.6483180456 -2.7415745556
H 2.7794086796 -1.6129409601 -2.2732612911
H 5.6946383377 -0.4782410576 0.0372562962
H 4.9343485605 1.1258835162 0.2688766645
H 5.7642909802 0.1335718437 2.4319741392
H 4.0226392852 0.4416379458 2.4345040803
H 4.6240166192 -1.2084048165 2.2206164892
H -0.0851044296 0.9076121884 1.2809098067
H -0.5483463507 -0.092983047 2.7033591904
H -4.2534883371 2.0870233441 2.1063536924
H -4.9173573721 1.2636349241 0.6658892506
H -3.4183841204 -0.1332193746 2.9416204951
H -5.1718817199 -0.1394059827 2.712300333
H -4.1228976033 -0.9219443608 1.5218419194
H -4.4706935028 -0.8855810583 -2.5969856423
H -3.1157967713 0.1883473705 -3.0647950278
H -2.5547073627 -2.2291706745 -3.4496722725
H -1.4793252385 -1.4529769038 -2.2769249247
H -2.7636653625 -2.5339813557 -1.71364366
*
