  17
        -27.19442586
 C         -2.7691918321       -0.7774138026       -0.0001652761
 O         -1.7937705075        0.2446592839        0.0001285529
 C         -0.4657681319       -0.1191472068        0.0000705467
 C          0.0140541899       -1.4168890576        0.0000830934
 C          1.3821534592       -1.6509731817        0.0000243933
 C          2.2716902286       -0.5951862780       -0.0000571448
 C          1.8005170989        0.7080016666       -0.0000668202
 C          0.4388694284        0.9565882650        0.0000032429
 O         -0.0110386855        2.2419712985        0.0000011477
 H         -2.6866492339       -1.3998900179       -0.8947192534
 H         -3.7259228686       -0.2600851922       -0.0001874284
 H         -2.6868752419       -1.4002120281        0.8941837623
 H         -0.6663429452       -2.2528267317        0.0001412246
 H          1.7430020138       -2.6673988995        0.0000377503
 H          3.3345382273       -0.7773942715       -0.0001190885
 H          2.4740255123        1.5499106149       -0.0001361734
 H         -0.9819503410        2.2346680479        0.0000269424
