! pbe def2-sv(p) def2/J RI DEFGRID1 loosescf d4 GCP(DFT/SV(P)) printgap
%output
    printlevel normal
end
* xyz 0 1
C 4.1537014329 -0.6837085844 -2.3801166261
C 4.4595985935 -0.5528986872 -0.9006080228
O 3.5809118447 0.4132177765 -0.2700444418
P 2.3131081864 0.0686018686 0.601651804
S 1.6779091553 1.7065847462 1.4590624505
O 2.8591154456 -1.0939623527 1.5374003386
C 2.0360251979 -2.0154564334 2.2758254454
C 1.0594334738 -1.3140673047 3.1967024851
S 0.9620845051 -0.9976602141 -0.6779854528
C 0.5397632913 0.3830991744 -1.7668874469
S -0.6311305562 1.5705341494 -1.0504350281
P -2.2154547355 0.2028193113 -0.7797062454
S -2.5174980821 -1.0994281822 -2.2041601765
O -3.4852883953 1.128402746 -0.5735876871
C -3.5033144197 2.4148938939 0.0865724486
C -3.060886749 2.3399162233 1.5329253262
O -1.8471965111 -0.4378311944 0.6400412032
C -2.2164648276 -1.7876202331 0.9749942631
C -3.6982298747 -1.8906917975 1.2727713715
H 4.9120266814 -1.3093348072 -2.8404174549
H 3.1800516886 -1.1418194605 -2.5369795626
H 4.1684054572 0.2946247031 -2.8535313311
H 5.4595620648 -0.1466803875 -0.7401943553
H 4.3656179141 -1.5106222685 -0.386862116
H 1.5086555941 -2.6519927374 1.5591293548
H 2.7579740809 -2.610006441 2.8387489053
H 0.5222173966 -2.0519334876 3.7843218593
H 1.5883362803 -0.6378629757 3.8641621113
H 0.3492039408 -0.7279368638 2.6143297618
H 0.0930724264 -0.0611787681 -2.6564576781
H 1.4350439375 0.9518575369 -2.0107398117
H -2.8659606055 3.1001521141 -0.4788914171
H -4.5462181167 2.7243885631 -0.0003310038
H -3.1795534185 3.3176215261 1.9896359009
H -3.6625803134 1.6157143974 2.0757297677
H -2.0128733242 2.0512426497 1.5974782208
H -1.9419832891 -2.4421786565 0.1412785917
H -1.6095625298 -2.0261315818 1.8491730222
H -3.944705426 -2.9153178973 1.5320952688
H -3.9659570941 -1.2348504732 2.0969448879
H -4.2685271738 -1.5999197319 0.3904216503
*
