  26
        -36.69455838
 C         -3.4462832734        0.1598842675        1.2810705532
 C         -3.1442425037       -0.9420431043        0.2737182786
 C         -2.4205313515       -0.4059595761       -0.9694626775
 C         -1.0584801756        0.1291327239       -0.6290816346
 C         -0.8266554697        1.4886302339       -0.5058350363
 C          0.4261305284        1.9651558166       -0.1555018440
 C          1.4676124194        1.0855546237        0.0781502092
 C          1.2444393422       -0.2956246233       -0.0462283403
 C         -0.0100421241       -0.7578852215       -0.3965357204
 O          2.3476482041       -1.0836251657        0.2023666099
 C          2.2083750744       -2.4848366545        0.0935563718
 O          2.6972437257        1.5656942687        0.4225634638
 H         -4.0830830977        0.9199322400        0.8341751366
 H         -3.9564873538       -0.2485158816        2.1500332152
 H         -2.5253572486        0.6351001239        1.6117584606
 H         -4.0780806799       -1.4137844089       -0.0384951560
 H         -2.5243145282       -1.7053348690        0.7481478231
 H         -3.0230563314        0.3846099704       -1.4188772730
 H         -2.3226240624       -1.2158791597       -1.6953243499
 H         -1.6274213346        2.1895601871       -0.6841210427
 H          0.6161125976        3.0220329088       -0.0575826639
 H         -0.1924366076       -1.8162314387       -0.4972563757
 H          1.4733202404       -2.8642439592        0.8080334896
 H          3.1903298151       -2.8895165054        0.3283503868
 H          1.9234758466       -2.7745307993       -0.9211254470
 H          3.3009124705        0.8155154217        0.5447845526
  26
        -36.69455373
 C         -2.9581611479       -1.2992445863       -1.1945432586
 C         -3.3946704914       -0.1735329654       -0.2657010953
 C         -2.4823363592       -0.0477108945        0.9626146392
 C         -1.0862600907        0.3494139674        0.5745093075
 C         -0.7929801665        1.6647324559        0.2511384740
 C          0.4826344901        2.0303282892       -0.1426516286
 C          1.4880389247        1.0824597003       -0.2206265500
 C          1.2027496497       -0.2526529507        0.1054132798
 C         -0.0760759077       -0.6046080211        0.4981855856
 O          2.2717811159       -1.1161390501       -0.0033385960
 C          2.0663430309       -2.4787703188        0.3061811844
 O          2.7417730486        1.4546047477       -0.6093831915
 H         -3.6266025522       -1.3668817311       -2.0493542316
 H         -1.9494209274       -1.1192907322       -1.5596234330
 H         -2.9725054777       -2.2526566738       -0.6710145197
 H         -4.4161380530       -0.3585150002        0.0725480212
 H         -3.3866671556        0.7707954983       -0.8132984788
 H         -2.4642459556       -1.0014539821        1.4923407961
 H         -2.8990615776        0.7075292844        1.6317838270
 H         -1.5652897420        2.4163402840        0.3086192550
 H          0.7210092282        3.0514207613       -0.3940779507
 H         -0.3045434979       -1.6277781031        0.7511409103
 H          1.3215473850       -2.9254391598       -0.3575395599
 H          1.7582856951       -2.6038694856        1.3473807912
 H          3.0307222290       -2.9567903009        0.1492311950
 H          3.3148869994        0.6712934255       -0.6033226602
  26
        -36.69438185
 C         -4.5216662808       -0.8376081913        0.6224618703
 C         -3.0788023616       -0.3692111187        0.7636303949
 C         -2.3975373803       -0.2118458401       -0.6016223149
 C         -0.9785063687        0.2522344433       -0.4391903956
 C         -0.6658620826        1.6014194749       -0.4283237853
 C          0.6386256645        2.0246675693       -0.2359499674
 C          1.6517213754        1.1014933500       -0.0478416308
 C          1.3455171750       -0.2690122637       -0.0539769208
 C          0.0391395171       -0.6782998601       -0.2475626052
 O          2.4249778519       -1.1033134106        0.1404520671
 C          2.2010337617       -2.4978641054        0.1494175537
 O          2.9332751975        1.5297362293        0.1389210129
 H         -4.5626927564       -1.7996694922        0.1167432744
 H         -4.9851491433       -0.9425514481        1.6002296382
 H         -5.0993880013       -0.1213204030        0.0428560167
 H         -2.5156880438       -1.0876218014        1.3631255870
 H         -3.0513005375        0.5891202467        1.2863660407
 H         -2.9564533976        0.5127218182       -1.1960899209
 H         -2.4192994265       -1.1708294555       -1.1226717069
 H         -1.4441399937        2.3345167718       -0.5742981397
 H          0.8927468611        3.0725011210       -0.2292770655
 H         -0.2075585196       -1.7282519691       -0.2554229008
 H          1.8008476821       -2.8384164857       -0.8089600596
 H          1.5220910079       -2.7823079608        0.9573470901
 H          3.1786453600       -2.9439491995        0.3179378211
 H          3.5070666916        0.7549852820        0.2516931449
  26
        -36.69208360
 C         -4.7851804416       -0.5339620499       -0.0066047609
 C         -3.4815726679        0.2562818865       -0.0413897901
 C         -2.2917852723       -0.6317958463        0.3164465972
 C         -0.9363261004        0.0077619676        0.1580782087
 C         -0.7427103162        1.3768252382        0.0936493534
 C          0.5314615984        1.9077374013       -0.0369182792
 C          1.6360578842        1.0795806150       -0.1011642465
 C          1.4538250453       -0.3113504638       -0.0329504275
 C          0.1789591521       -0.8278799922        0.0933334185
 O          2.6142793414       -1.0512802087       -0.1046992315
 C          2.5171803407       -2.4589000511       -0.0416130519
 O          2.8837329552        1.6165213365       -0.2298709283
 H         -4.9506109082       -0.9535239550        0.9832326556
 H         -5.6267791999        0.1087822273       -0.2521321378
 H         -4.7567995402       -1.3507254535       -0.7245198439
 H         -3.5504986641        1.0852032073        0.6648769248
 H         -3.3349354909        0.6723931589       -1.0401098397
 H         -2.3238703702       -1.5281235913       -0.3087003905
 H         -2.3983107925       -0.9632077638        1.3544252756
 H         -1.5798398912        2.0528208019        0.1427381961
 H          0.6867484901        2.9734519650       -0.0904095233
 H          0.0291491472       -1.8949674562        0.1451329085
 H          2.0774348008       -2.7811770436        0.9056687308
 H          3.5407526389       -2.8200761963       -0.1126423048
 H          1.9294431394       -2.8506872781       -0.8757169089
 H          3.5315687615        0.8943351949       -0.2579534595
  26
        -36.69195785
 C         -4.4530517011       -1.1881358172        0.4058704698
 C         -2.9323654717       -1.0950914416        0.3430420043
 C         -2.4883425272        0.2693254669       -0.1793492178
 C         -1.0031932538        0.5278350098       -0.1684439491
 C         -0.5495823371        1.8254142217       -0.3642330655
 C          0.8024914463        2.1160505981       -0.3798681021
 C          1.7344359441        1.1093272564       -0.1956728709
 C          1.2897343636       -0.2052872743        0.0044755937
 C         -0.0665866994       -0.4836430052        0.0141215977
 O          2.2932556805       -1.1345345536        0.1799291371
 C          1.9318587335       -2.4823219933        0.3981230200
 O          3.0665489679        1.4053429889       -0.2099593244
 H         -4.8853894954       -1.0336145238       -0.5801860542
 H         -4.7604794079       -2.1667554914        0.7660945876
 H         -4.8547473148       -0.4331758492        1.0779129796
 H         -2.5580500921       -1.8828863187       -0.3132035915
 H         -2.5196217195       -1.2541440372        1.3414188641
 H         -2.9716356950        1.0477959173        0.4171755887
 H         -2.8487396733        0.3882283067       -1.2061152623
 H         -1.2621506444        2.6233184157       -0.5078948680
 H          1.1579461959        3.1225717388       -0.5320283164
 H         -0.3981571305       -1.4963283194        0.1659950236
 H          1.3375432047       -2.5882760130        1.3093578478
 H          2.8730591010       -3.0161564008        0.5101408149
 H          1.3794602815       -2.8854831884       -0.4545816512
 H          3.5678729551        0.5871322335       -0.0643106886
  26
        -36.69090408
 C         -3.4378625756        0.0969477575       -1.2857648398
 C         -3.1350918490       -0.9691799699       -0.2408022631
 C         -2.4146205119       -0.3891765271        0.9842936948
 C         -1.0560688335        0.1435595542        0.6268338335
 C         -0.8305884395        1.4987568681        0.4679199116
 C          0.4229010394        1.9663277316        0.1031190182
 C          1.4695791784        1.0887783929       -0.1098513503
 C          1.2542074517       -0.2928519148        0.0502022130
 C         -0.0023883714       -0.7427387276        0.4151705343
 O          2.3442171571       -1.0906174318       -0.1752345021
 C          2.1931360781       -2.4873172629       -0.0282396165
 O          2.7199092530        1.5016153823       -0.4697311601
 H         -4.0733969003        0.8727547931       -0.8648861597
 H         -2.5167290575        0.5586052953       -1.6343476274
 H         -3.9495263050       -0.3414676161       -2.1390601401
 H         -2.5124693015       -1.7466422317       -0.6879107158
 H         -4.0682336725       -1.4323254916        0.0860540170
 H         -2.3110396985       -1.1750480614        1.7353527123
 H         -3.0222808011        0.4112939647        1.4088480554
 H         -1.6324008063        2.2028958867        0.6281522180
 H          0.5871622467        3.0271472102       -0.0173390054
 H         -0.1817153619       -1.7982831617        0.5443114805
 H          1.9081507923       -2.7491243800        0.9945704965
 H          3.1720119382       -2.9045838886       -0.2534288286
 H          1.4547106300       -2.8818789375       -0.7317764376
 H          2.7390519409        2.4679815503       -0.5432118641
  26
        -36.69089938
 C         -2.9378932232       -1.3230901369       -1.1907735648
 C         -3.3881521057       -0.1982837844       -0.2673354939
 C         -2.4795787752       -0.0576350710        0.9621643010
 C         -1.0859372483        0.3477096095        0.5740595675
 C         -0.7991796182        1.6621552019        0.2484386451
 C          0.4776567896        2.0274717982       -0.1465123246
 C          1.4891104983        1.0871717563       -0.2246906090
 C          1.2118159527       -0.2517791497        0.1048042927
 C         -0.0693825738       -0.5998982785        0.4987464260
 O          2.2678778485       -1.1177769426        0.0026183373
 C          2.0511631555       -2.4771672307        0.3194882549
 O          2.7612986074        1.3997378188       -0.6088283186
 H         -3.6019502286       -1.3993936934       -2.0482966101
 H         -1.9288759187       -1.1364415284       -1.5516503203
 H         -2.9461598145       -2.2748521078       -0.6642825174
 H         -4.4081954612       -0.3928879603        0.0697528488
 H         -3.3894133392        0.7436999847       -0.8189220709
 H         -2.4545042691       -1.0080383694        1.4975064911
 H         -2.9039418503        0.6980581156        1.6261171052
 H         -1.5728801755        2.4125575019        0.3038253313
 H          0.6904009591        3.0567094580       -0.3961046418
 H         -0.2949063419       -1.6227174169        0.7547249117
 H          3.0127267045       -2.9617900200        0.1659604781
 H          1.3044068460       -2.9240295714       -0.3428334485
 H          1.7416154832       -2.5961311413        1.3615367454
 H          2.8232659968        2.3475678680       -0.8020016798
  26
        -36.69073372
 C         -4.5180763910       -0.8530920451        0.6226889738
 C         -3.0769989961       -0.3793452015        0.7644614917
 C         -2.3920872212       -0.2309649267       -0.5998880209
 C         -0.9762808912        0.2429306188       -0.4378510983
 C         -0.6724596169        1.5925213789       -0.4307305359
 C          0.6323515143        2.0194048362       -0.2391831179
 C          1.6532698237        1.1064397166       -0.0489149286
 C          1.3573346923       -0.2692222307       -0.0507870487
 C          0.0491391300       -0.6787215220       -0.2435678118
 O          2.4254763981       -1.1036354536        0.1427465059
 C          2.1937889364       -2.4971131259        0.1500165797
 O          2.9525499341        1.4786896757        0.1410996066
 H         -4.5546325461       -1.8193232676        0.1246850651
 H         -4.9843132951       -0.9515793637        1.5998195076
 H         -5.0960521873       -0.1432458684        0.0354204939
 H         -2.5131408344       -1.0910349440        1.3712237739
 H         -3.0543204218        0.5831872687        1.2796799321
 H         -2.9535899166        0.4844998547       -1.2030830595
 H         -2.4062357727       -1.1949401449       -1.1117793531
 H         -1.4534638911        2.3224592520       -0.5782565882
 H          0.8585220883        3.0756101526       -0.2389754699
 H         -0.1925908877       -1.7296153194       -0.2486731707
 H          3.1699753375       -2.9468181512        0.3169418884
 H          1.7915968987       -2.8363785528       -0.8086183763
 H          1.5148773130       -2.7812127829        0.9588591648
 H          3.0247560959        2.4451259518        0.1193352380
  26
        -36.68980042
 C         -4.3744978958        0.5901134960        0.3557801028
 C         -3.4476942564       -0.2252693832       -0.5403642013
 C         -2.3054780603       -0.9026897413        0.2353908079
 C         -0.9788967813       -0.1947218538        0.1444043818
 C         -0.8694130198        1.1856891725        0.1935255231
 C          0.3676282261        1.8040145587        0.1196500421
 C          1.5226652145        1.0525092545        0.0017865864
 C          1.4270310681       -0.3469556936       -0.0437324580
 C          0.1851681679       -0.9509932812        0.0247374787
 O          2.6320643924       -1.0060869849       -0.1601905609
 C          2.6238863198       -2.4177070701       -0.2014839642
 O          2.7349783084        1.6747286649       -0.0688755912
 H         -4.8607949245       -0.0560973417        1.0833522107
 H         -3.8267827621        1.3568438587        0.8974912221
 H         -5.1452365752        1.0751965066       -0.2389507801
 H         -3.0271549521        0.4156747258       -1.3171500998
 H         -4.0432998918       -0.9922658412       -1.0388195510
 H         -2.1720217714       -1.9216158856       -0.1316624836
 H         -2.5887794689       -0.9770840287        1.2891155444
 H         -1.7493735007        1.7999458463        0.2874344273
 H          0.4571417027        2.8780710798        0.1541015621
 H          0.1057931403       -2.0261309572       -0.0135618787
 H          2.1952347793       -2.8359460919        0.7128326825
 H          3.6690656567       -2.7078012487       -0.2824991769
 H          2.0717385157       -2.7831337921       -1.0711369229
 H          3.4269165561        0.9986976893       -0.1465971902
  26
        -36.68970188
 C         -3.2868795430       -2.0133329936       -0.0918810516
 C         -3.1243073043       -0.6984035223        0.6656610909
 C         -2.5910029281        0.4397524720       -0.2149753795
 C         -1.0974661768        0.6456875072       -0.1920736302
 C         -0.5872059263        1.9098369916       -0.4517962084
 C          0.7764808121        2.1446929490       -0.4593199502
 C          1.6633711277        1.1141712739       -0.2028993769
 C          1.1614965353       -0.1685458727        0.0614716907
 C         -0.2043871760       -0.3903318993        0.0624823007
 O          2.1231542974       -1.1268021913        0.3044530255
 C          1.7033307170       -2.4480598740        0.5732520759
 O          3.0066514130        1.3550849795       -0.2080330554
 H         -4.0356888713       -1.9051865965       -0.8735543765
 H         -2.3564700960       -2.3214166509       -0.5612778198
 H         -3.6106486258       -2.8023384645        0.5832753173
 H         -2.4628779959       -0.8363995721        1.5227323158
 H         -4.1019226968       -0.4100663103        1.0570064477
 H         -3.0551927326        1.3791145495        0.0916842522
 H         -2.8981078035        0.2586780790       -1.2495035489
 H         -1.2618525112        2.7284575810       -0.6515154452
 H          1.1742495879        3.1268229014       -0.6591276497
 H         -0.5785240423       -1.3781412660        0.2683412471
 H          1.0886348746       -2.4910150724        1.4760097526
 H          2.6195269654       -3.0139154004        0.7272037693
 H          1.1512638434       -2.8660354433       -0.2725652284
 H          3.4714508942        0.5265977707       -0.0091302478
  26
        -36.68964411
 C         -3.5203070726        0.2004590586       -1.3256350182
 C         -3.3287095606       -0.8181537689       -0.2092965813
 C         -2.5824182519       -0.2243367889        0.9931872536
 C         -1.1765928843        0.1618591899        0.6333022614
 C         -0.8228330547        1.4814411963        0.3945514527
 C          0.4716013861        1.7989006856        0.0306587833
 C          1.4531052546        0.8258455081       -0.1097163626
 C          1.1106419306       -0.5116031182        0.1331920121
 C         -0.1986443401       -0.8100965772        0.4986531073
 O          1.9308781624       -1.6072926128        0.0505463141
 C          3.3075657792       -1.4653984431       -0.2458603968
 O          2.7274241191        1.1767979105       -0.4779761176
 H         -4.0531819257       -0.2469855134       -2.1609760728
 H         -4.0934145347        1.0532496708       -0.9689380152
 H         -2.5566880289        0.5575470027       -1.6818132873
 H         -2.7659722525       -1.6723158307       -0.5906812502
 H         -4.3037978046       -1.1786083935        0.1242543941
 H         -2.5596660614       -0.9665288628        1.7933966481
 H         -3.1237400551        0.6522255933        1.3524656408
 H         -1.5561237881        2.2668865311        0.4916296888
 H          0.7361418061        2.8305499134       -0.1538172173
 H         -0.4275217209       -1.8492818276        0.6794256788
 H          3.8137960490       -0.8471137573        0.4977249965
 H          3.4610916822       -1.0383935787       -1.2384861419
 H          3.7040615839       -2.4785814892       -0.2146411610
 H          2.7786917447        2.1371397558       -0.5950277205
  26
        -36.68963009
 C         -3.1979766616       -0.8750371147        1.3644314000
 C         -3.5269443642        0.0655316623        0.2123736146
 C         -2.6050425752       -0.1548924339       -0.9949737832
 C         -1.1813663394        0.1964876015       -0.6718574628
 C         -0.7736404009        1.5222344133       -0.6146042917
 C          0.5289003029        1.8348946503       -0.2813493452
 C          1.4682028839        0.8513129767        0.0060785790
 C          1.0719373368       -0.4909904773       -0.0529611538
 C         -0.2472800615       -0.7852319276       -0.3900815192
 O          1.8438803277       -1.5971376665        0.1934587488
 C          3.2238539413       -1.4719445030        0.4817302789
 O          2.7533849116        1.1990907944        0.3385337473
 H         -3.8628020164       -0.6936867147        2.2054407379
 H         -3.3105164110       -1.9113500476        1.0539460592
 H         -2.1724827134       -0.7263908372        1.6951954714
 H         -3.4319167550        1.0992668406        0.5502697481
 H         -4.5608224343       -0.0929709882       -0.1006111580
 H         -2.9522625852        0.4700040753       -1.8202558416
 H         -2.6655512356       -1.1988828600       -1.3051149363
 H         -1.4731626590        2.3142841875       -0.8330249253
 H          0.8360182978        2.8704155901       -0.2400383374
 H         -0.5169890889       -1.8296096969       -0.4241795809
 H          3.3907179744       -0.9160925359        1.4060736002
 H          3.7592857992       -0.9858921349       -0.3359341820
 H          3.5772302911       -2.4949215225        0.5973549940
 H          2.8429407066        2.1636081101        0.3223406094
  26
        -36.68950049
 C         -4.7081545960       -0.5854987812        0.6097790168
 C         -3.2332566962       -0.2328932790        0.7564117867
 C         -2.5382133191       -0.1251209248       -0.6064911504
 C         -1.0876619235        0.2215698236       -0.4378015745
 C         -0.6663965606        1.5423823951       -0.3853933409
 C          0.6679721449        1.8382066344       -0.1877422156
 C          1.6244609285        0.8420597490       -0.0331518876
 C          1.2125921739       -0.4965560700       -0.0833380333
 C         -0.1372743430       -0.7734149775       -0.2831432889
 O          1.9976671149       -1.6128194233        0.0466972610
 C          3.3997728844       -1.5024334298        0.2067186889
 O          2.9413836174        1.1729043018        0.1631466401
 H         -5.2261616086        0.1756611877        0.0308364694
 H         -4.8225042437       -1.5398351178        0.1008584663
 H         -5.1813105074       -0.6571846877        1.5859090232
 H         -2.7285908771       -0.9961618010        1.3523695089
 H         -3.1324462795        0.7180012746        1.2837813111
 H         -3.0354259256        0.6442151630       -1.1999224906
 H         -2.6322810580       -1.0777953868       -1.1301808692
 H         -1.3789592595        2.3441809374       -0.5018692794
 H          0.9862069740        2.8704815981       -0.1508482742
 H         -0.4196826325       -1.8145080766       -0.3167302709
 H          3.6567973471       -0.9740107215        1.1264331372
 H          3.8594782114       -0.9958884291       -0.6438391788
 H          3.7546810731       -2.5300093123        0.2599375224
 H          3.0371678734        2.1370035890        0.1650995785
  26
        -36.68720112
 C         -4.6733581216       -0.9684521782        0.3071308193
 C         -3.1487367812       -0.9762508858        0.2762485962
 C         -2.6002780043        0.4116370029       -0.0411536093
 C         -1.0992947201        0.5296239735       -0.0893959883
 C         -0.5337197751        1.7743918726       -0.3461750390
 C          0.8358941225        1.9249510471       -0.4011436073
 C          1.6986473672        0.8523169315       -0.2045144950
 C          1.1450861068       -0.4061637774        0.0545238743
 C         -0.2424259489       -0.5379502973        0.1060876374
 O          1.8181399915       -1.5808571379        0.2747979274
 C          3.2325680400       -1.6239944480        0.2498097065
 O          3.0575169411        1.0370345584       -0.2652521124
 H         -5.0364613105       -0.2796000577        1.0665687756
 H         -5.0729782693       -0.6587041988       -0.6559242233
 H         -5.0547750629       -1.9609531414        0.5336577264
 H         -2.8086580296       -1.6858398982       -0.4803341968
 H         -2.7706659741       -1.3053165769        1.2460488185
 H         -2.9727132526        1.1178114805        0.7069069005
 H         -2.9977612917        0.7355924317       -1.0077735099
 H         -1.1698652290        2.6317500318       -0.5043236142
 H          1.2587644918        2.8992117037       -0.6016627750
 H         -0.6121415488       -1.5293184454        0.3090383169
 H          3.6652280342       -0.9860333606        1.0225731141
 H          3.6237972825       -1.3288878704       -0.7254827711
 H          3.4822832486       -2.6647068347        0.4479863227
 H          3.2494262687        1.9678103796       -0.4531888434
