  26
        -36.69455838
 C         -3.4462832734        0.1598842675        1.2810705532
 C         -3.1442425037       -0.9420431043        0.2737182786
 C         -2.4205313515       -0.4059595761       -0.9694626775
 C         -1.0584801756        0.1291327239       -0.6290816346
 C         -0.8266554697        1.4886302339       -0.5058350363
 C          0.4261305284        1.9651558166       -0.1555018440
 C          1.4676124194        1.0855546237        0.0781502092
 C          1.2444393422       -0.2956246233       -0.0462283403
 C         -0.0100421241       -0.7578852215       -0.3965357204
 O          2.3476482041       -1.0836251657        0.2023666099
 C          2.2083750744       -2.4848366545        0.0935563718
 O          2.6972437257        1.5656942687        0.4225634638
 H         -4.0830830977        0.9199322400        0.8341751366
 H         -3.9564873538       -0.2485158816        2.1500332152
 H         -2.5253572486        0.6351001239        1.6117584606
 H         -4.0780806799       -1.4137844089       -0.0384951560
 H         -2.5243145282       -1.7053348690        0.7481478231
 H         -3.0230563314        0.3846099704       -1.4188772730
 H         -2.3226240624       -1.2158791597       -1.6953243499
 H         -1.6274213346        2.1895601871       -0.6841210427
 H          0.6161125976        3.0220329088       -0.0575826639
 H         -0.1924366076       -1.8162314387       -0.4972563757
 H          1.4733202404       -2.8642439592        0.8080334896
 H          3.1903298151       -2.8895165054        0.3283503868
 H          1.9234758466       -2.7745307993       -0.9211254470
 H          3.3009124705        0.8155154217        0.5447845526
