! r2scan-3c def2/J RI DEFGRID2 scfconv6 printgap
%output
    printlevel normal
end
%cpcm
    smd true
    smdsolvent "water"
end
* xyz 0 1
C -3.0752134958 0.3669646191 0.0042877249
C -1.616217804 0.0232113598 -0.0020603743
C -1.1797795106 -1.293155142 -0.0021439738
C 0.1737218769 -1.5805647055 -0.0019266607
C 1.1314376718 -0.5787001568 -0.0008462817
C 0.6924893856 0.7492328738 -0.0008696952
C -0.6653578246 1.0353338644 -0.0020572849
O 1.6268280383 1.7464444652 -0.0008956287
C 2.5942769379 -0.9105941127 0.0039359671
H -3.6831061772 -0.5299631805 -0.0744571123
H -3.3363636194 0.8834813251 0.9268537814
H -3.3146047557 1.026990159 -0.8274811233
H -1.8990950593 -2.0986338398 -0.0029593064
H 0.5019117868 -2.6098738482 -0.0023302816
H -0.9919162817 2.0666679109 -0.0029741521
H 1.1895448817 2.6103249497 -0.0028394263
H 3.1860998002 -0.0021525431 -0.0582816835
H 2.8577749312 -1.43961468 0.9186916691
H 2.8395230298 -1.5529607442 -0.8399779451
*
