! pbe def2-sv(p) def2/J RI DEFGRID1 loosescf d4 GCP(DFT/SV(P)) printgap
%output
    printlevel normal
end
* xyz 0 1
C -1.4513849558 0.0534962433 -0.0006112184
C 0.0381360737 -0.0873429648 -0.0029028086
O 0.6412919264 -1.1403642361 0.0006036924
O 0.6585467475 1.0838448982 -3.36063e-05
H -1.7589399801 0.4848754351 0.9490281822
H -1.748671321 0.736314773 -0.7913857171
H -1.9155961697 -0.9176896692 -0.1336335149
H 1.6308355574 0.9969725358 0.0088154116
*
