! pbe def2-sv(p) def2/J RI DEFGRID1 loosescf d4 GCP(DFT/SV(P)) printgap
%output
    printlevel normal
end
* xyz 0 1
C 1.6828706461 -0.9207029541 -3.5567364577
C 2.1997996355 -1.3249421127 -2.1918218288
O 2.3333333756 -0.1181598183 -1.3972353106
P 2.3945034578 -0.1340820141 0.1745333849
S 2.6480039308 1.6332932863 0.9673376432
O 3.5996318229 -1.1545075095 0.4093496127
C 4.3299283145 -1.2388529423 1.6454011598
C 3.4585361993 -1.6658390666 2.8089885528
S 0.6863432503 -1.2475038494 0.8083424075
C -0.1374474637 0.005750426 1.8476927335
S -1.9263575614 0.0118703721 1.6396014936
P -2.0847812687 0.7639608979 -0.354538616
S -0.4606365197 1.5449105003 -1.1225035607
O -3.2765606048 1.783951975 -0.3405727451
C -4.6169434738 1.4632134406 0.1259783481
C -4.8603483059 2.071829229 1.4921163031
O -2.7156971003 -0.4465731118 -1.1759731136
C -1.9564199522 -1.6161610429 -1.5364366917
C -2.7533589156 -2.3850298163 -2.5702614903
H 1.5152498685 -1.8092427486 -4.156450375
H 0.7516177925 -0.3683896971 -3.4527698028
H 2.4035731707 -0.2769554028 -4.0523972446
H 3.183600041 -1.7942730907 -2.2525840165
H 1.5077828785 -2.0025415276 -1.6810883948
H 5.1090619291 -1.9725672445 1.4338476132
H 4.7807094513 -0.2616874931 1.8434633414
H 2.9171519968 -2.5765794635 2.5654244016
H 4.0846972119 -1.838740142 3.67840615
H 2.7452613408 -0.876196162 3.0425635716
H 0.278356251 0.9847133405 1.5968487544
H 0.0327489078 -0.2392185691 2.8934139278
H -5.2759599339 1.8994733129 -0.6262627715
H -4.7405086178 0.3796584711 0.1419322319
H -4.2148953512 1.6122924786 2.2366631215
H -4.6613385793 3.1396743363 1.4639359137
H -5.8965208617 1.9084437507 1.7709605348
H -0.9897701418 -1.2924074004 -1.9348778009
H -1.7865854264 -2.2113529368 -0.6337986873
H -3.7152633718 -2.6741620744 -2.157679036
H -2.9182305837 -1.7673697865 -3.4485748396
H -2.2016890606 -3.2749353575 -2.854152263
*
