! r2scan-3c def2/J RI DEFGRID2 scfconv6 printgap
%output
    printlevel normal
end
%cpcm
    smd true
    smdsolvent "water"
end
* xyz 0 1
C 5.3718160114 -2.2462677723 -0.8620169504
C 4.2382443474 -1.3503655648 -1.3178777347
O 3.4779934998 -0.9732591824 -0.1502286389
P 2.4634518946 0.2478918007 -0.1821371292
S 3.1731298164 1.9541267136 -0.8181563058
O 1.9828542613 0.323874633 1.3105687351
C 1.4636814903 -0.8169264114 2.0438934308
C 0.5484480016 -0.287463132 3.1272476814
S 0.8439059723 -0.5347050486 -1.3372599713
C -0.0019581088 1.045697528 -1.5594819614
S -0.8700010719 1.5980124017 -0.0719401077
P -2.427462942 0.1629557901 -0.1881572128
S -3.110017343 -0.2166694408 -1.9792016674
O -3.574624627 0.6953738896 0.7638732815
C -3.4533127701 0.8378368703 2.200599376
C -2.9973312679 2.2319885957 2.5804968959
O -1.7325240482 -1.0632433599 0.5690152674
C -2.0524160662 -2.4307190153 0.2482907007
C -3.4234347546 -2.8120134706 0.7680890039
H 4.9733490417 -3.1250379763 -0.3637678307
H 5.9510542211 -2.5541764707 -1.7261748192
H 6.0161888412 -1.7099629945 -0.1711966468
H 3.5672390167 -1.870177347 -2.0068880408
H 4.6117561773 -0.440642162 -1.7989724402
H 0.9269667206 -1.4658490857 1.3455387678
H 2.3169170553 -1.3563300558 2.4581523591
H -0.2854121389 0.2455562684 2.6776580071
H 0.1736097905 -1.1176766654 3.7169966101
H 1.0917767508 0.3985715285 3.7701694539
H -0.7225852709 0.9131136775 -2.3671095324
H 0.7347433486 1.8131369303 -1.8015155234
H -4.4611794356 0.6398355595 2.56930613
H -2.7644075768 0.0775755894 2.5755814935
H -2.9950832335 2.3218478463 3.6623140765
H -1.9943743705 2.4272201839 2.2049872562
H -3.6720108697 2.9728118937 2.1605475969
H -2.0010756358 -2.5554510915 -0.8376378637
H -1.2608790721 -3.0113098209 0.7238572856
H -3.4769502291 -2.6723542001 1.8445181997
H -4.1811891811 -2.1908268467 0.2907171654
H -3.6220297423 -3.8522426522 0.5302949174
*
