! pbe def2-sv(p) def2/J RI DEFGRID1 loosescf d4 GCP(DFT/SV(P)) printgap
%output
    printlevel normal
end
* xyz 0 1
C 2.2390375517 -4.5819642572 -0.1184311594
C 1.9927731204 -3.5697302998 -1.2219258446
O 1.780174568 -2.2748298254 -0.6242455443
C 2.241890339 -1.2061671853 -1.2366802043
O 2.8368679189 -1.2146640355 -2.2914593736
C 1.898432846 0.0599023348 -0.4734715937
C 0.7217715622 0.7443194757 -1.1712149298
H 0.9878016516 0.9538314 -2.2125042382
C 0.3229819169 2.0486747707 -0.5005897867
O -0.826706244 2.2980916317 -0.1985617694
O 1.3443101355 2.8400609848 -0.3343243587
C 1.1443564299 4.0956805525 0.3529426151
C 1.4306555283 3.9306614305 1.83599657
S -0.7511174849 -0.3203064487 -1.2701942772
P -1.5825150352 -0.0746233828 0.6812705179
S -0.442325048 0.4325857683 2.1893613869
O -2.9238877814 0.7520289503 0.5944012569
C -3.9390155704 0.4912809872 -0.3928019249
O -2.2016766803 -1.5469395679 0.8720498576
C -1.3550912612 -2.6740045978 1.1121955205
H 2.3709865924 -5.5642600457 -0.5596141624
H 3.1327581623 -4.3197013177 0.4404497215
H 1.3945148712 -4.6056850138 0.5641131298
H 1.0934856114 -3.8137542456 -1.7947043744
H 2.8417810523 -3.4975903448 -1.9078860507
H 2.7524255636 0.7373437648 -0.4968825625
H 1.6419289958 -0.1885847823 0.5575666837
H 1.84985903 4.7804032114 -0.1178933972
H 0.1158835021 4.4258980221 0.1861629646
H 0.7576142057 3.192945282 2.2699370717
H 2.4532191096 3.5982650375 1.9881959306
H 1.282783261 4.8809017791 2.3378542024
H -3.5245676923 0.6170071748 -1.3930700325
H -4.7119609358 1.2314169059 -0.2030666762
H -4.32638968 -0.5186824052 -0.2699499196
H -0.7344358578 -2.4921679223 1.991202824
H -0.7190645932 -2.8546327339 0.2455837505
H -2.0253080241 -3.5123831877 1.2822987702
*
