! pbe def2-sv(p) def2/J RI DEFGRID1 loosescf d4 GCP(DFT/SV(P)) printgap
%output
    printlevel normal
end
* xyz 0 1
C 1.818073118 0.2651320066 -3.4923861281
C 2.5285276032 0.2966063547 -2.1556877045
O 1.7692818543 -0.5109009504 -1.2313590731
P 2.0809322371 -0.5095872759 0.3255555953
S 2.487667673 1.2523975078 1.0967887422
O 3.2683936696 -1.5717938742 0.3463035045
C 3.7323484506 -2.3100429052 1.4921139095
C 3.9939863508 -1.4375798419 2.7017608057
S 0.4520506825 -1.5811574532 1.1026071657
C -0.5184822687 -0.2216657065 1.8539449852
S -2.2562975533 -0.2428522796 1.3619204414
P -2.1380459806 0.687115939 -0.5507851976
S -0.5197219165 1.7601069675 -0.8697528697
O -3.511135092 1.4497546125 -0.7039093936
C -3.6836492953 2.812914884 -0.2777769043
C -3.6222674123 2.9584201102 1.2297868154
O -2.4695384601 -0.4185105566 -1.6339755973
C -1.5817221371 -1.4913474279 -2.0022210014
C -1.9876231898 -2.785135551 -1.3222001596
H 0.8280898234 0.7038775141 -3.394255679
H 2.3912287268 0.8402589503 -4.2120234951
H 1.7217939265 -0.7598446068 -3.8385137494
H 2.5849426352 1.3156364741 -1.757244713
H 3.5365543813 -0.120060211 -2.2235264456
H 2.9864299481 -3.0761449748 1.7209929661
H 4.649907733 -2.7824479119 1.1363877058
H 4.6839966819 -0.6351868339 2.451144703
H 3.0651109096 -0.9913699351 3.053977615
H 4.4196716371 -2.0435612361 3.4950866951
H -0.0522109394 0.726632086 1.5723762169
H -0.5139065826 -0.3598547466 2.9316555117
H -2.9139006421 3.4278295453 -0.7556292393
H -4.6660433783 3.0830785755 -0.6676208381
H -2.6099659014 2.7673147173 1.5836824083
H -3.9022141397 3.9708983053 1.5029638282
H -4.3008516368 2.2545149171 1.7047667061
H -1.6826148529 -1.5711084246 -3.0868306029
H -0.5491888487 -1.2172320839 -1.7616653836
H -1.3703316449 -3.5925196731 -1.7028218968
H -1.8512483586 -2.7188016746 -0.2451712862
H -3.0318165688 -2.9979516534 -1.53245413
*
