! pbe def2-sv(p) def2/J RI DEFGRID1 loosescf d4 GCP(DFT/SV(P)) printgap
%output
    printlevel normal
end
* xyz 0 1
C 2.7045735653 -0.8668440553 -2.7695431466
C 1.6356783171 0.0213121033 -2.170967864
O 1.0983765227 -0.5352012419 -0.9552758253
P 1.9707622025 -0.6101409538 0.3761303359
S 3.3172710755 0.7959105608 0.6324969085
O 2.5530726528 -2.0842514399 0.2731588349
C 3.6610341438 -2.5351767561 1.0732108632
C 3.2942770083 -2.6520547832 2.53848245
S 0.4363963547 -0.8139519272 1.8032540061
C -0.0036136794 0.9400121681 2.009331583
S -0.0912083892 1.8764207868 0.4555502492
P -1.8141198898 1.0282318809 -0.4278168476
S -1.9032087875 1.3037547953 -2.365020597
O -2.8727570807 1.7434904448 0.5166536912
C -4.24788428 1.3216952173 0.648236421
C -5.0561316566 1.6062527252 -0.6009870964
O -1.9522543012 -0.4858135741 0.0362342625
C -1.8001277054 -1.6316245987 -0.8164704124
C -3.0721412595 -2.4539695276 -0.7595083102
H 3.005137009 -0.4645198376 -3.7317819005
H 3.571496715 -0.8962031223 -2.1104058255
H 2.323693258 -1.8762192288 -2.899947253
H 0.7689345394 0.1201969849 -2.8281545267
H 2.0327104285 1.0180277716 -1.9483773969
H 3.9178809503 -3.5034339579 0.6417324832
H 4.4909598416 -1.8338607652 0.9401538668
H 3.1033627178 -1.663342708 2.9534777425
H 2.4013464794 -3.2603098592 2.657825087
H 4.1176394535 -3.107556189 3.079216688
H 0.7675968639 1.4364139142 2.5957133956
H -0.9644810474 0.9648307743 2.517191664
H -4.2624874196 0.2565959771 0.8915202366
H -4.6118788361 1.9021238495 1.4977455638
H -4.9955981821 2.6611756159 -0.8567927904
H -4.6731321508 1.0294253822 -1.4413302861
H -6.0934793584 1.3375063634 -0.4277387026
H -1.5944117221 -1.2898864556 -1.8362627107
H -0.9418682251 -2.1932084317 -0.4397392307
H -2.9392737153 -3.3522384238 -1.3534000986
H -3.2897535527 -2.7320108378 0.2678875435
H -3.9063149836 -1.8833516656 -1.1610187144
*
