! pbe def2-sv(p) def2/J RI DEFGRID1 loosescf d4 GCP(DFT/SV(P)) printgap
%output
    printlevel normal
end
* xyz 0 1
C 1.5943918258 -2.8357406771 1.1118535829
C 1.7844790808 -1.5056719666 1.81171311
O 2.8376160675 -0.7159193452 1.2330384445
P 2.8047819588 -0.0798977902 -0.2268125824
S 3.0486823824 -1.2709370035 -1.7581351809
O 3.9800933496 0.9607527096 -0.1574721445
C 4.0780547492 2.0003258512 0.8493216126
C 4.9906678997 1.5695800403 1.9791979374
S 1.0151024048 1.1144981412 -0.241766387
C 0.0705438131 0.173508335 -1.4636344234
S -1.0878479074 -0.9898344426 -0.7115693451
P -2.5893450561 0.4618004892 -0.2660342223
S -2.9268193883 1.7561621642 -1.6934633764
O -2.1182330742 1.1634151115 1.0614700563
C -1.8637139229 0.4510113484 2.2990472048
C -3.063751575 0.5310551248 3.2196296898
O -3.8397517488 -0.3939563519 0.2071640219
C -4.7323851375 -1.0431170234 -0.7186015487
C -4.2981536518 -2.4682597797 -0.9996371607
H 2.5402153127 -3.3678029654 1.0512367106
H 0.8794363184 -3.4339540143 1.6671638611
H 1.215942452 -2.6869456793 0.1018018722
H 2.1056298315 -1.644121601 2.8455942121
H 0.8601453049 -0.9204843801 1.787734897
H 4.4864756069 2.859102217 0.3135911212
H 3.0745546516 2.238927753 1.2119307328
H 4.5795737943 0.702667029 2.4887526368
H 5.9698583848 1.3111909579 1.5856954292
H 5.0923094536 2.3883161537 2.6847155213
H 0.7648484718 -0.4041792408 -2.0789437667
H -0.4943471145 0.8879380093 -2.0642806485
H -1.6169968596 -0.5885439548 2.0649050974
H -0.9969405817 0.9574290425 2.7285988222
H -3.9158089289 0.0269421737 2.771932997
H -2.8189747354 0.0540185536 4.1634650489
H -3.3262007157 1.5698959011 3.3994444915
H -5.7038191616 -1.0171515196 -0.2214848367
H -4.7794049139 -0.450005752 -1.6377821866
H -3.3401518872 -2.4850084803 -1.5141770326
H -4.2042829369 -3.0200326574 -0.0686732173
H -5.0435904793 -2.9474002679 -1.6262415175
*
