! pbe def2-sv(p) def2/J RI DEFGRID1 loosescf d4 GCP(DFT/SV(P)) printgap
%output
    printlevel normal
end
* xyz 0 1
C 1.4893224125 -3.9229465221 -1.8918153346
C 2.2628761017 -3.6037815419 -0.6220414851
O 1.92744427 -2.2931498133 -0.1254424115
C 2.5261697599 -1.2504252895 -0.6672370736
O 3.3781201326 -1.3110396974 -1.5237312721
C 1.9892473111 0.0509528634 -0.1014415632
C 0.9108293672 0.5879084015 -1.048795255
H 1.3360088754 0.7271897197 -2.0468315062
C 0.350478841 1.9093579906 -0.5561224308
O -0.831881231 2.0627416589 -0.3161912504
O 1.2702709293 2.8203177665 -0.4369699591
C 0.9018845453 4.1036662466 0.1192385058
C 0.9966471386 4.0669952522 1.6354282436
S -0.4808822635 -0.5685181695 -1.2697873928
P -1.6290647742 -0.2060514602 0.4852655649
S -0.8009625685 0.4296774321 2.1560038226
O -3.0235659577 0.4131596131 0.0570931338
C -3.5038540943 1.711439543 0.4107354342
O -2.221481232 -1.6849522009 0.6680611869
C -1.3880967525 -2.7457780421 1.1427955005
H 0.42079875 -3.8137192606 -1.7249010084
H 1.7861423581 -3.2462852812 -2.6895694786
H 1.7030669394 -4.9425319457 -2.194323815
H 3.3396450198 -3.6369441658 -0.8098565063
H 1.9970295569 -4.2794540684 0.1910262798
H 2.7973634205 0.7809171975 -0.050111376
H 1.5712562167 -0.1242350787 0.8911636699
H 1.620635229 4.800370672 -0.3112784688
H -0.1129740443 4.3474406983 -0.2042664673
H 0.3274093824 3.3087465827 2.038834751
H 2.010934713 3.832798852 1.9450762967
H 0.7142025415 5.0345508857 2.0363056995
H -2.9967168133 2.0760502817 1.3054730361
H -4.5690390336 1.5955407498 0.5989989736
H -3.327079895 2.3970566032 -0.4158271132
H -2.011403948 -3.6357700798 1.1288858037
H -1.052798346 -2.5271723602 2.1582702926
H -0.5202024191 -2.8716097935 0.4941575238
*
