! pbe def2-sv(p) def2/J RI DEFGRID1 loosescf d4 GCP(DFT/SV(P)) printgap
%output
    printlevel normal
end
* xyz 0 1
C 3.7722161636 -1.3348380582 -2.3902447532
C 4.1856935202 -0.1092481051 -1.59993101
O 3.6326166001 -0.1019852717 -0.2757307852
P 2.0746407529 0.0774208944 0.0205930018
S 1.2166695857 1.3768154708 -1.1754822668
O 2.1203374314 0.3659796121 1.5712376885
C 2.1977607168 1.6921880906 2.1286194692
C 3.4781174399 2.403344103 1.7452989832
S 1.3099948021 -1.8912439111 0.0680694253
C 0.0247332538 -1.7885892252 -1.2282389156
S -1.6626923096 -2.0460332262 -0.6173637905
P -2.1126550351 -0.0982234917 0.0653436502
S -1.0684292191 0.5824634655 1.5902856325
O -3.6760351437 -0.1228081609 0.3416931774
C -4.2235805797 -0.4832888482 1.6207847784
C -4.0444775419 -1.9590892005 1.9105184422
O -2.0325783163 0.6617690243 -1.3197093728
C -2.7069356174 1.9002663535 -1.6301522918
C -2.2366892122 3.0476205945 -0.7617284517
H 3.9780420218 -2.2376713322 -1.8208684466
H 2.7064404381 -1.2925159574 -2.6114955207
H 4.3242107074 -1.362202812 -3.324253635
H 3.8664699269 0.8040326404 -2.1131016962
H 5.263393565 -0.0835949349 -1.4331314932
H 1.3178314867 2.2543782958 1.7990427532
H 2.1301463429 1.52078959 3.2038415954
H 4.3380553325 1.7933231581 2.0096110976
H 3.4934237346 2.5894117294 0.6717317981
H 3.5300919683 3.3527815146 2.2688766257
H 0.2040344389 -2.6003655288 -1.9277011157
H 0.0860749512 -0.8127637398 -1.7162134294
H -3.7349211178 0.1231717713 2.3906209357
H -5.2766236602 -0.2100061273 1.5426513342
H -2.9856195355 -2.1873990228 2.0290044946
H -4.5643346954 -2.2129141726 2.8286582774
H -4.4388701239 -2.5554696624 1.0918955876
H -2.4529136822 2.0666352884 -2.6783029533
H -3.781643695 1.7382201324 -1.522829613
H -2.4933681634 2.8624140258 0.2805890453
H -1.1560999758 3.1527817073 -0.8389304222
H -2.7108539834 3.9673821452 -1.088639385
*
