! pbe def2-sv(p) def2/J RI DEFGRID1 loosescf d4 GCP(DFT/SV(P)) printgap
%output
    printlevel normal
end
* xyz 0 1
C 4.4342067451 -1.0815131084 -2.4627029538
C 4.5561147509 -0.2056448615 -1.231906394
O 3.4683418062 0.7559297623 -1.1956319478
P 2.2826694758 0.6903610394 -0.1606777312
S 1.0413730452 2.1627605583 -0.497018714
O 3.0739365368 0.7080306832 1.2144294083
C 2.4704104132 0.7422291882 2.5219150721
C 2.4106025838 -0.6459905366 3.1267824029
S 1.4860704906 -1.2780472474 -0.3115318927
C 0.2047937405 -0.9484504804 -1.5661063652
S -1.3927085609 -1.6771232316 -1.131877714
P -2.0820404525 -0.2657471307 0.2714119416
S -1.0349212493 0.1454665862 1.8671729013
O -3.4996139662 -0.8266340358 0.7032584926
C -4.5389022009 -1.1823239863 -0.2413009405
C -4.6188922097 -2.6869981917 -0.4023856096
O -2.328839822 0.9530845692 -0.7381412605
C -2.4830203674 2.3069348869 -0.279918025
C -3.7914266292 2.5038668334 0.4572205979
H 3.5576183605 -1.7204695131 -2.3909408928
H 4.3507454561 -0.4621178603 -3.3514062719
H 5.3195873794 -1.7042416535 -2.5419765499
H 5.4624099101 0.4008152849 -1.2619183013
H 4.5417980156 -0.7991077541 -0.3157331714
H 3.1184089798 1.4007799664 3.1032343931
H 1.4713567791 1.1821823342 2.4527906288
H 2.0438736565 -0.5676610004 4.1449319735
H 1.7285322437 -1.2779471988 2.5626234615
H 3.3984447496 -1.0977353058 3.1296741089
H 0.497840701 -1.4203561505 -2.5001409689
H 0.0980273078 0.1334895646 -1.6780320511
H -5.4556126458 -0.784144606 0.197633134
H -4.3397817886 -0.6893789343 -1.1961212258
H -4.7626567597 -3.1559185793 0.5669687724
H -5.4574735829 -2.9300241603 -1.0472005399
H -3.7034435687 -3.0719280424 -0.846494594
H -1.6307675752 2.5589080535 0.3590868062
H -2.4306003285 2.9017594102 -1.1929642334
H -3.803822596 1.8889502561 1.3570483742
H -3.8860704263 3.5467903224 0.7426460681
H -4.6295289751 2.2258955596 -0.1768737569
*
