! pbe def2-sv(p) def2/J RI DEFGRID1 loosescf d4 GCP(DFT/SV(P)) printgap
%output
    printlevel normal
end
* xyz 0 1
C 3.2045931781 2.2830310031 2.2610097986
C 1.8993243905 1.7127436509 1.7451920669
O 1.8959706015 0.2652119346 1.7983427902
P 2.3787320626 -0.6764167181 0.6296948635
S 2.1857282937 -2.5633111016 1.1025878651
O 3.8642788419 -0.1795258473 0.3567875939
C 4.8289290712 -0.9786101345 -0.3509635079
C 4.4589205405 -1.1775558779 -1.8064907254
S 1.2948695278 -0.0240152593 -1.0933717928
C -0.1343599065 -1.1014046357 -0.8416536182
S -1.2207228246 -0.5363011048 0.4894393265
P -2.7216197637 0.4515619541 -0.6897344657
S -2.5172982026 0.340252065 -2.6302716558
O -2.8339823888 1.8944027242 -0.0228729723
C -1.732322054 2.7850227076 0.2227447353
C -0.9721429128 3.1425571749 -1.0378272896
O -4.105298237 -0.1724636236 -0.275041416
C -4.5709327603 -0.301957471 1.0920131751
C -4.5078039435 -1.7520696652 1.5295237992
H 4.0259177195 2.0019365841 1.6080486868
H 3.1276785336 3.3653863401 2.2943481229
H 3.406133226 1.9069360482 3.2602918924
H 1.7113591876 2.0287559996 0.7148727437
H 1.0633588191 2.0010841195 2.3855712336
H 5.7585639374 -0.4174507243 -0.2462089511
H 4.9172925087 -1.9429843851 0.158649013
H 4.2501069097 -0.2213506902 -2.2798811312
H 5.2818052047 -1.6627235472 -2.3215951765
H 3.5755800467 -1.8095256813 -1.8853711366
H 0.219131969 -2.0965398963 -0.5703170905
H -0.6944035602 -1.1097700425 -1.7791708039
H -2.2072833589 3.6630292131 0.6640571098
H -1.0700091707 2.3143676628 0.9556552226
H -0.2285346453 3.8990546933 -0.8081664175
H -0.4717533025 2.2649860849 -1.4464415072
H -1.6540108253 3.5265490433 -1.7925826657
H -3.9691408032 0.3373390775 1.7408881761
H -5.5998525472 0.060649894 1.0705306672
H -3.4766941525 -2.095112364 1.5729543353
H -4.9530277819 -1.845779294 2.5149372229
H -5.0554589776 -2.3751244156 0.827880336
*
