! pbe def2-sv(p) def2/J RI DEFGRID1 loosescf d4 GCP(DFT/SV(P)) printgap
%output
    printlevel normal
end
* xyz 0 1
C 3.6993614222 -0.2748044025 -2.6103095388
C 2.4780554186 0.5698031019 -2.3169403541
O 1.7899892713 0.1224245242 -1.1337468085
P 2.40382136 0.268447754 0.3185931899
S 3.526783659 1.8369644377 0.6496545822
O 3.1352365924 -1.1411288896 0.4945715132
C 4.1299731546 -1.3551245125 1.5098634618
C 3.5304672917 -1.3591428991 2.9019115323
S 0.6342419698 0.1187381314 1.4456188547
C -0.0546346292 -1.4117944012 0.695535157
S -1.8395934877 -1.4466426196 0.890363708
P -2.284236304 0.0815857327 -0.5346192706
S -1.2660537145 0.0301417207 -2.203066929
O -2.0422394858 1.4670159923 0.1776189534
C -2.6444265031 1.8397618712 1.4414151538
C -3.8460571676 2.7337818075 1.2152892038
O -3.8687769955 0.0188389273 -0.6184252227
C -4.6415024861 -1.1790969026 -0.828871268
C -4.2052331216 -1.95148829 -2.055672589
H 4.4421359364 -0.1344958958 -1.8257924947
H 3.4269197151 -1.3258209292 -2.6579003388
H 4.1256211609 0.0318289897 -3.560209488
H 1.7194675612 0.4860545645 -3.0979225231
H 2.7542873344 1.6200576238 -2.1794829289
H 4.5665655917 -2.3211120106 1.252903602
H 4.8854764953 -0.5677246846 1.4236526764
H 4.3074506307 -1.5826608679 3.6258576524
H 3.1109755974 -0.3785672952 3.1268264479
H 2.7432498607 -2.1045219474 2.9792152358
H 0.3401298132 -2.2792591356 1.2169751541
H 0.1917861714 -1.4214329051 -0.3660273127
H -2.9209250608 0.9324919951 1.9860480021
H -1.8501002389 2.3595748104 1.9811051822
H -4.2459636348 3.0393599327 2.17700885
H -3.5535039896 3.6153277067 0.6514177786
H -4.6122306337 2.2008676353 0.6583642312
H -4.5581142015 -1.7982584482 0.0683701831
H -5.663232482 -0.8099026384 -0.9334014058
H -3.1906209157 -2.3245830425 -1.924047854
H -4.8745357054 -2.7916803421 -2.2096551444
H -4.2228421458 -1.3105720406 -2.9341603829
*
