! r2scan-3c def2/J RI DEFGRID2 scfconv6 printgap
%output
    printlevel normal
end
%cpcm
    smd true
    smdsolvent "water"
end
* xyz 0 1
C 4.0798269074 -0.3088319269 -2.2653661575
C 4.3550730444 -0.5665515934 -0.797216058
O 3.1439249979 -0.7068818356 -0.0392220423
P 2.189649285 0.5392831513 0.2604418201
S 3.1123231031 2.2385962738 0.5688537339
O 1.3085448252 -0.0099181472 1.4569217457
C 1.7092937908 0.1471358542 2.8351945255
C 2.9487027821 -0.6579622307 3.1622741951
S 0.7353124152 0.5119909256 -1.2786280438
C 0.2221966284 -1.2279849772 -1.1441526098
S -0.9527113985 -1.5444005271 0.1940086558
P -2.4612884792 -0.2041469967 -0.4822779463
S -2.6864283348 -0.0656495154 -2.4194850045
O -2.1352047578 1.2182280763 0.1205885954
C -1.9471748109 1.4586883926 1.5361647363
C -1.0854153056 2.6947188614 1.6918106167
O -3.7168162412 -0.6204821065 0.4016186091
C -4.2294390411 -1.9591945946 0.5491525981
C -4.5249326235 -2.6257623067 -0.7776896885
H 3.4571786406 -1.0953639874 -2.6842763606
H 3.5666924069 0.6454774723 -2.3848947015
H 5.0199565367 -0.2707986318 -2.8062550828
H 4.9380648203 0.255622199 -0.3697472124
H 4.8767613633 -1.512227357 -0.6437155564
H 1.8778920469 1.2115799541 3.0257032938
H 0.8425234025 -0.2018246683 3.3981928096
H 2.8092936687 -1.696683317 2.8746014947
H 3.8062306182 -0.2533051662 2.6266493092
H 3.1416702103 -0.6005263653 4.2289767496
H 1.0885145456 -1.857423347 -0.9570822145
H -0.2534206461 -1.4623890503 -2.0960421719
H -2.9338280097 1.6004846757 1.9809933705
H -1.4704468481 0.5797873856 1.981695045
H -0.1030736232 2.5351069362 1.2494162843
H -1.5505062705 3.5381431826 1.189628388
H -0.9681472484 2.9214582479 2.7466445128
H -3.5002979568 -2.5403542646 1.1203773243
H -5.1380678455 -1.8204148506 1.1376763748
H -3.6036679932 -2.7689206117 -1.3402480923
H -4.9870392627 -3.5915681172 -0.6006391139
H -5.1945785022 -2.0083772874 -1.3717404963
*
