! pbe def2-sv(p) def2/J RI DEFGRID1 loosescf d4 GCP(DFT/SV(P)) printgap
%output
    printlevel normal
end
* xyz 0 1
C 2.3537909025 -0.6176659437 -2.6400013725
C 3.0495168161 0.5143554384 -1.9147051785
O 2.4614652435 0.8194790503 -0.6259497763
P 2.282211328 -0.1859082157 0.5773830266
S 2.2424094783 0.8088203646 2.2652988015
O 3.4994078493 -1.1814136775 0.3414113746
C 3.6321552878 -2.489778287 0.9280179053
C 3.5538657353 -2.4707241771 2.4398858892
S 0.5573622367 -1.3806967844 0.1997134757
C -0.5512385111 -0.666734586 1.4356596397
S -1.086660614 1.0321935221 1.0733524205
P -2.1106420474 0.7290333636 -0.7565062926
S -1.1283405551 0.6521800829 -2.4393275463
O -3.1094219367 1.9583585297 -0.8014644404
C -4.0577498787 2.2595125949 0.2525526757
C -3.6197998492 3.4923112473 1.0174067166
O -3.0054996156 -0.5491502655 -0.414005546
C -3.1934298256 -1.676655436 -1.2974203017
C -2.6340944135 -2.9378948387 -0.6707931185
H 2.4391996922 -1.545313781 -2.077545081
H 1.3006369896 -0.3880414195 -2.7863447701
H 2.8211452133 -0.7497122153 -3.6107162796
H 2.9500066701 1.4539774846 -2.4603301886
H 4.1047594304 0.286073059 -1.7512933505
H 2.8530190443 -3.1329045453 0.5087337865
H 4.6129218713 -2.8232789866 0.5841856942
H 3.7576367535 -3.4656017965 2.8224799819
H 4.2786207253 -1.7708922105 2.8489372084
H 2.5613977094 -2.1610666126 2.763049369
H -0.0336909611 -0.5936108793 2.3923970618
H -1.4183293597 -1.3189968903 1.4955949799
H -5.0031401063 2.4315131092 -0.2648150308
H -4.1487629013 1.3925372075 0.9106542592
H -3.4939939769 4.3280836458 0.3345514694
H -4.3759748526 3.7413012504 1.7551167072
H -2.6737365118 3.3110446874 1.5238302241
H -4.2720944862 -1.7523311232 -1.4472584804
H -2.7052089689 -1.4609028927 -2.2533810441
H -3.0877084048 -3.1091726239 0.3015512772
H -2.858472304 -3.7780410718 -1.3198074101
H -1.5543219891 -2.8595643724 -0.5573835294
*
