! pbe def2-sv(p) def2/J RI DEFGRID1 loosescf d4 GCP(DFT/SV(P)) printgap
%output
    printlevel normal
end
* xyz 0 1
C 5.6319905056 0.8340186084 -1.2142960142
C 4.2749734042 0.1705828928 -1.3346551933
O 3.5724659399 0.3683705783 -0.0916662409
P 1.9882178305 0.263842153 0.0043917613
S 1.0595797624 1.3860799287 -1.3132097574
O 1.7309410193 0.7275385935 1.487610356
C 2.4305450196 0.1827455734 2.6398721824
C 1.5629205695 -0.8220404456 3.3721372043
S 1.791813256 -1.8563834772 -0.0691190736
C 0.0035313406 -2.157245592 -0.0017506277
S -0.8998284442 -1.4148428524 -1.4053143869
P -2.0118798945 0.0336191645 -0.3518664984
S -2.835708297 1.4146822876 -1.4663813424
O -1.0449639116 0.5104375305 0.8161187172
C -1.2231297136 1.8182672386 1.3989839791
C -2.4785079689 1.8792510283 2.2408780986
O -3.0087731566 -0.8634326856 0.5216701982
C -4.1010740707 -1.5830633984 -0.0786695049
C -5.3826830572 -0.7745528058 -0.0200657174
H 6.1828237661 0.6851936451 -2.1371066645
H 5.5115414541 1.8990732315 -1.0365652669
H 6.1870232903 0.3985589608 -0.3886681745
H 4.3689956738 -0.9053979193 -1.5029371678
H 3.6834445879 0.6117132615 -2.1438828419
H 3.3696781 -0.2632136278 2.3098562939
H 2.6370868048 1.0556913315 3.260969785
H 2.0336323933 -1.0671910489 4.3190804019
H 0.5807566527 -0.3974097519 3.563576405
H 1.4513422572 -1.7331608327 2.7899918037
H -0.4131116872 -1.7787910075 0.9283323922
H -0.1017512924 -3.2367694993 -0.0806558657
H -0.318017779 1.9697306599 1.9880581559
H -1.2549579604 2.5567190374 0.5907139033
H -2.4721766513 1.0892262043 2.9871064998
H -2.5330007797 2.8456451675 2.7318998984
H -3.3518491156 1.7556491886 1.6016264911
H -3.8422257884 -1.8313356193 -1.1134793016
H -4.1840406581 -2.5003173253 0.5074446227
H -5.6139460764 -0.5148248955 1.0090854442
H -5.2754027058 0.1404351772 -0.5987580955
H -6.1955162658 -1.3618012724 -0.4346830535
*
