! wb97x-v def2-tzvp def2/J RIJCOSX DEFGRID2 scfconv7 GCP(DFT/TZ) printgap
%output
    printlevel normal
end
%cpcm
    smd true
    smdsolvent "water"
end
* xyz 0 1
C -0.6915866533949422 -1.2061041484503219 0.3246040260322152
C 0.692907670955016 -1.2053415296262946 -0.3244736791788793
C 1.4911893476392044 0.022262979714294518 0.12013675846826641
C 0.6642173682071854 1.2753078302429501 0.066034597347146
C -0.6657076283208925 1.2745466575895206 -0.0660053748348221
C -1.4912157002855475 0.020577515689544183 -0.12014198970123548
H -0.5738061162937171 -1.1846713657405747 1.416262273928369
H -1.23734766814409 -2.1228423264662295 0.07697932369875381
H 1.2397154684934533 -2.121437405409562 -0.07677213304362375
H 0.5751059467796956 -1.1841303108452668 -1.416134919019238
H 1.8686617531918146 -0.12239408729836157 1.1435982256573072
H 2.3830594569333043 0.1476397647859297 -0.5067500042152646
H 1.1944868357805503 2.2243811545093157 0.13011240740631708
H -1.1970008622107393 2.2230379133286577 -0.13005359898189361
H -2.3832776834435507 0.14493732121615963 0.506650635489855
H -1.86842478139566 -0.12457057311565087 -1.1436178546722318
*
