  20
        -42.68383131
 C         -2.5771131119        1.5920269251        0.2850561662
 C         -1.1890091717        1.1348057235       -0.1424094092
 H         -1.1723761745        0.9247328367       -1.2186299151
 C         -0.1100558692        2.1477733156        0.2370990618
 C          1.2618659467        1.8626900891       -0.3701691681
 O          1.9675953786        0.8304237152        0.3319866859
 N          1.9028557885       -0.4360361467       -0.1253333032
 O          1.2386271171       -0.6563799508       -1.0952078986
 O          2.5417200047       -1.2140457515        0.5105936114
 O         -0.8391449559       -0.0918208221        0.5443171470
 N         -1.3234347679       -1.2543950375        0.0651320041
 O         -2.0524962543       -1.2186946878       -0.8764871705
 O         -0.9423939192       -2.2139690647        0.6639983983
 H         -2.8177960092        2.5249782496       -0.2120316825
 H         -2.6059259501        1.7388771894        1.3609091852
 H         -3.3227658595        0.8519418794        0.0055311214
 H         -0.4327314986        3.1256923162       -0.1129139570
 H         -0.0178499497        2.1727066954        1.3226719999
 H          1.1813755068        1.5900115119       -1.4259032456
 H          1.9089330241        2.7320831047       -0.2543774998
