! pbe def2-sv(p) def2/J RI DEFGRID1 loosescf d4 GCP(DFT/SV(P)) printgap
%output
    printlevel normal
end
* xyz 0 1
C 5.1568363992 -0.7688365545 -2.4824258991
C 3.714884632 -0.9266479519 -2.0438904052
O 3.4940345338 -0.0500950637 -0.9238884228
P 2.0228711047 0.2883083643 -0.4113909141
S 0.8656801519 0.9621565155 -1.8365149408
O 2.3250548625 1.3546883469 0.6963763107
C 2.7708953545 1.1051541375 2.0506701396
C 3.9968106134 0.221634435 2.1129303493
S 1.3965061792 -1.5354141606 0.5054451396
C -0.0588011379 -1.9423022533 -0.5042210991
S -1.6050787264 -2.0268786286 0.4422985392
P -2.0167733011 0.0151873163 0.6791017977
S -0.7451728288 1.1980793277 1.5790643943
O -3.3809347478 0.0276450525 1.4868511293
C -4.5442233799 -0.7266721548 1.0554473725
C -5.7834344354 0.0630547931 1.4244034701
O -2.3651895317 0.3793578308 -0.8373995274
C -2.5477403753 1.746600832 -1.2576562361
C -2.6198380354 1.7572292086 -2.7695036845
H 5.8244065148 -1.0339787044 -1.6679840615
H 5.3448080144 -1.4203426087 -3.3293789857
H 5.3465148835 0.2608453728 -2.7721441897
H 3.5058326402 -1.9511405582 -1.7222829496
H 3.0202834087 -0.6519076882 -2.8453324821
H 2.9709883077 2.1082105574 2.43021864
H 1.9320602723 0.6720162643 2.6026918926
H 3.7607661097 -0.7789918561 1.7534543439
H 4.791418812 0.6405963405 1.5009849383
H 4.3301516342 0.15509352 3.1439428721
H 0.085794606 -2.9414084719 -0.9064972827
H -0.1565962255 -1.1967212501 -1.2987275512
H -4.4807691621 -0.8951266565 -0.0227049207
H -4.513256471 -1.6870720091 1.5739226202
H -6.6636620854 -0.5116647211 1.1550009096
H -5.7929061789 0.2581193025 2.4929379849
H -5.8002822337 1.0133614793 0.8971886237
H -3.4663013923 2.1281774938 -0.8024694988
H -1.7009514761 2.3389615787 -0.8954828306
H -2.8135167363 2.7695246288 -3.1080947427
H -1.6724407858 1.417905802 -3.1811812747
H -3.414316678 1.1000023036 -3.1100578277
*
