! pbe def2-sv(p) def2/J RI DEFGRID1 loosescf d4 GCP(DFT/SV(P)) printgap
%output
    printlevel normal
end
* xyz 0 1
C 3.1572029036 2.3000701112 0.3448688333
C 2.8072803664 1.5524963204 1.6147578511
O 1.7301331974 0.6004059389 1.4132667382
P 1.8190407323 -0.7702276248 0.6487408526
S 0.316818183 -1.9439419028 1.1074175112
O 3.2611384238 -1.2927749817 1.0559297855
C 3.7349890058 -2.5884495945 0.6354258334
C 4.9681155334 -2.9167879575 1.4521903435
S 2.0386327978 -0.4158966851 -1.446994737
C 0.2940285018 -0.2536823814 -1.8520392747
S -0.4726742658 1.1328071399 -0.9497223193
P -2.452042508 0.3660214455 -0.7603245459
S -2.6853340687 -1.5369231778 -1.1569994274
O -3.3315912068 1.2426860576 -1.7277529938
C -3.1690705133 2.6561019292 -2.0075263823
C -3.1284985068 3.5059572565 -0.7566720992
O -2.9776997685 0.8271601422 0.6669222248
C -2.6367047511 0.1729656524 1.900045566
C -1.5885020301 0.9673856876 2.6541107702
H 3.6538181481 1.6435265408 -0.3653838863
H 2.2552961403 2.6972747104 -0.1156400207
H 3.8233104956 3.1205542813 0.5926714229
H 2.3993756019 2.2232502559 2.3725334621
H 3.6699939317 1.0178889275 2.0139902145
H 2.9373384058 -3.3209510559 0.797239319
H 3.9631043602 -2.5385822934 -0.4326252226
H 5.346288966 -3.8876375276 1.1495156943
H 5.7342534179 -2.165080853 1.2869838414
H 4.7197114493 -2.9430580289 2.5094786526
H -0.2417664505 -1.1702414226 -1.5867490473
H 0.2435664915 -0.0647906139 -2.9216113928
H -2.2537989204 2.7820242971 -2.5914042373
H -4.0382487503 2.8854358365 -2.625529552
H -2.2356108093 3.2766024367 -0.1773156617
H -3.1056787414 4.5534845424 -1.0409962177
H -4.005271355 3.3164633486 -0.1431145794
H -3.5729367541 0.1230237432 2.4595179992
H -2.2896474339 -0.8447753465 1.6911399388
H -1.4206367599 0.5003759972 3.619359256
H -0.6489628376 0.9753012549 2.1055472045
H -1.92720895 1.9892943887 2.7980972105
*
