! pbe def2-sv(p) def2/J RI DEFGRID1 loosescf d4 GCP(DFT/SV(P)) printgap
%output
    printlevel normal
end
* xyz 0 1
C 4.6908488186 -1.1398309112 -1.9970894591
C 3.9830882609 -1.9533815393 -0.9342679837
O 3.4770089777 -1.1433556626 0.1436173671
P 2.5203008969 0.1152797487 -0.0175607756
S 3.2810775711 1.8181516303 -0.606256135
O 1.9631711232 0.272095308 1.4454074292
C 1.3488679478 -0.8073908626 2.1938933729
C 0.434896494 -0.1859295402 3.2289715573
S 0.9346253047 -0.6520276811 -1.2310921103
C 0.1580940754 0.9466883951 -1.5410384969
S -0.7688444198 1.5744235048 -0.1192677222
P -2.3616952464 0.1839963485 -0.2692750388
S -2.9657758264 -0.2444269135 -2.0773419918
O -3.5392852359 0.7840566273 0.6027244298
C -3.4784336771 0.9906441093 2.0352944555
C -3.0225400694 2.3963137963 2.3707114954
O -1.7428098066 -1.0339195274 0.5647193995
C -2.1122401056 -2.3998637095 0.2938459277
C -3.5168787351 -2.6977490333 0.7771216269
H 5.1227205831 -1.8077487476 -2.7353922209
H 3.9862837485 -0.4723872563 -2.4915470842
H 5.4782722442 -0.5362781433 -1.5518310792
H 4.6679581207 -2.6421120662 -0.4364520711
H 3.1448112702 -2.5073640721 -1.3658387837
H 0.7916297518 -1.4425888649 1.4986689467
H 2.149833537 -1.3885691713 2.6541915148
H 1.0017950567 0.4786664433 3.8741209439
H -0.3425657755 0.3913497157 2.734962755
H -0.018205052 -0.971308824 3.8252437181
H -0.5225270837 0.8143088174 -2.3826348399
H 0.9327773477 1.6829131312 -1.7620014511
H -4.503449775 0.8202287655 2.3689843498
H -2.8153110993 0.2416393238 2.4741899928
H -3.0688551825 2.5372365854 3.4461188206
H -2.0008718262 2.5631330497 2.033842632
H -3.6677602828 3.1235794189 1.8856822965
H -2.0272315931 -2.5765694994 -0.7827526322
H -1.3653754197 -2.9914110878 0.8250687285
H -3.7512281365 -3.7393587761 0.5816861769
H -3.6041479289 -2.5032277898 1.8428256544
H -4.2290598841 -2.0701465254 0.2415320519
*
