! r2scan-3c def2/J RI DEFGRID2 scfconv6 printgap
%output
    printlevel normal
end
%cpcm
    smd true
    smdsolvent "water"
end
* xyz 0 1
C 5.3831679156 0.756616529 -0.4208142629
C 4.8501947756 -0.6267967495 -0.7280355294
O 3.6281184463 -0.9069561891 -0.0140552247
P 2.2787794736 -0.1430739728 -0.3230899041
S 1.9736661777 0.3193151862 -2.2067739774
O 2.3755104235 1.0809235187 0.6887858911
C 1.4833788238 2.2070099894 0.6710584338
C 2.1742612483 3.3584814946 1.3723413067
S 0.9599700635 -1.5087563728 0.5950350527
C -0.1462926138 -1.909332122 -0.8096029551
S -1.8713323105 -1.9859454302 -0.298554589
P -2.1361352841 0.0829223599 0.1453115621
S -1.4135556159 1.3559124093 -1.1522438195
O -1.4949115022 0.2943403417 1.5721363243
C -1.8466111533 -0.4926876379 2.7389276722
C -2.8851956883 0.2237758995 3.5765770006
O -3.6923742628 0.2001063983 0.4384696581
C -4.6645566452 0.4390307125 -0.595854726
C -4.7615198199 -0.7123917504 -1.5750549309
H 6.3521304449 0.8827573273 -0.8936833841
H 4.698930556 1.5097492785 -0.8099862347
H 5.481467646 0.8913657129 0.6531147178
H 5.5309987787 -1.4092565572 -0.3906234524
H 4.6550415133 -0.7364108097 -1.7995121865
H 1.2409176978 2.4532664095 -0.3687893303
H 0.5578508323 1.9244422535 1.1823851951
H 3.0786876455 3.6344146922 0.8374229942
H 1.5016109191 4.2093294515 1.4012349895
H 2.4365027983 3.0685440503 2.385598453
H 0.1048731401 -2.8973753556 -1.1863858067
H -0.0181034034 -1.1457139798 -1.5827174847
H -2.2068233206 -1.4711167505 2.4101299842
H -0.904983893 -0.6136114285 3.2782079599
H -2.5269822563 1.2115891642 3.8531321516
H -3.8113103153 0.3294241135 3.0182977355
H -3.0722313552 -0.3544660271 4.4759756726
H -5.5967465491 0.5797674284 -0.0469088091
H -4.3943825025 1.3640473429 -1.1142305422
H -3.8498109156 -0.7774070933 -2.1668401272
H -4.9026050186 -1.6506644049 -1.0445510328
H -5.6006668729 -0.5442131672 -2.2424706407
*
