! pbe def2-sv(p) def2/J RI DEFGRID1 loosescf d4 GCP(DFT/SV(P)) printgap
%output
    printlevel normal
end
* xyz 0 1
C 4.9364645887 -1.3508019309 -1.4026687962
C 4.8603643201 -0.0348294068 -0.6566893722
O 3.74280261 0.0026079594 0.2472267485
P 2.2455270979 0.1228113406 -0.265474564
S 2.0180242705 1.2582638149 -1.8561806124
O 1.4762689277 0.4774370944 1.0753721685
C 1.8806572896 1.514842336 1.9970154181
C 1.9992864254 2.8694547249 1.3325878277
S 1.5867260806 -1.8666290794 -0.5243683332
C -0.0755628897 -1.5299352086 -1.1693388772
S -1.3512181197 -1.7616694485 0.1058534462
P -2.3200240894 0.137731898 0.0277730395
S -1.2352933935 1.7201610226 -0.341893965
O -3.1455640241 0.1766668537 1.3857620595
C -2.5797930043 0.6793707694 2.6095964526
C -1.5389898029 -0.2583966654 3.1877644395
O -3.4360978701 -0.0368412835 -1.0739756458
C -4.421764449 -1.099136908 -1.0790967506
C -5.6849070898 -0.6771811784 -0.357161583
H 4.9138715771 -2.1829325675 -0.7039081255
H 4.0897284119 -1.4410339669 -2.0814993242
H 5.8556308856 -1.3851106571 -1.9784873687
H 4.7662477223 0.8002971008 -1.3586016249
H 5.7262178213 0.1151250307 -0.0103870232
H 1.0893768716 1.5121925063 2.7486618175
H 2.8283297799 1.212398317 2.4478070942
H 1.0725541124 3.1155531303 0.8164143287
H 2.2059790186 3.6254867759 2.0832430886
H 2.8059741377 2.861699728 0.6003905257
H -0.2591921414 -2.2451162015 -1.9661903483
H -0.113621008 -0.5011868398 -1.5386945348
H -2.148091793 1.665273213 2.4085983732
H -3.4400634162 0.7803684225 3.2729678362
H -0.6587675051 -0.2871248413 2.5472737077
H -1.2484683843 0.0932559242 4.1727872682
H -1.9419104513 -1.2647460689 3.2692572699
H -4.6115317428 -1.2803081929 -2.1385980954
H -3.9820921009 -1.9898233196 -0.6211285389
H -6.4290938722 -1.4606351604 -0.4611324232
H -5.4816248244 -0.5127157195 0.6972067119
H -6.0701654932 0.2429429673 -0.7881848664
*
