! pbe def2-sv(p) def2/J RI DEFGRID1 loosescf d4 GCP(DFT/SV(P)) printgap
%output
    printlevel normal
end
* xyz 0 1
C 2.1833648761 2.3385869264 2.4541144139
C 2.6191969724 2.2119356704 1.0091996911
O 1.7762416692 1.2987891042 0.2705272897
P 1.7094048147 -0.2538293581 0.5572657111
S 0.5118703497 -0.9321388434 1.9617012161
O 3.2459424418 -0.5615922977 0.8547469836
C 3.6864549506 -1.8661787319 1.2709659835
C 5.0583636254 -1.7192300298 1.8982353945
S 1.4153175201 -1.0627245088 -1.3799752993
C -0.1067276783 -2.0190607915 -1.1382521366
S -1.534784803 -1.3979260229 -2.0838361966
P -2.2070770151 0.1325931638 -0.8081061163
S -3.7954882542 1.1222607068 -1.3774460022
O -0.9186452986 1.0470539164 -0.5195544388
C -0.730707775 2.2695237792 -1.254743209
C -0.2828843603 2.0104927754 -2.6788417198
O -2.3536944516 -0.7026140114 0.5301725149
C -3.1933653712 -0.2647020691 1.6183791692
C -2.6842536597 1.0109234649 2.2540976705
H 1.143220316 2.6515713692 2.510843292
H 2.2818978764 1.3784458611 2.9594064967
H 2.8060236475 3.0707943254 2.9585223098
H 3.6517557564 1.8658825537 0.9394495951
H 2.5081322391 3.1555933095 0.4722370718
H 2.9603873854 -2.2691769783 1.9856143233
H 3.718954385 -2.5121787086 0.3894945449
H 5.0056035343 -1.0758272186 2.7720248451
H 5.4186519884 -2.6978989061 2.1974690891
H 5.7496253225 -1.2858331041 1.1812909332
H -0.3518162526 -2.0350451559 -0.0733998499
H 0.0699764833 -3.0198391201 -1.5223695118
H -1.6760330033 2.8222913086 -1.2458328644
H 0.0245674994 2.8109507084 -0.6856807136
H 0.6358577211 1.4287395942 -2.691010678
H -1.0563839536 1.4605394985 -3.2153647082
H -0.1146234306 2.9589602307 -3.1786756221
H -4.2081696619 -0.1276413411 1.2321272781
H -3.1644354741 -1.1018335079 2.3170007499
H -3.2952916948 1.2510110206 3.1182467572
H -1.6507528298 0.8814592981 2.5669239597
H -2.7412159938 1.8302140053 1.5379462762
*
