  21
        -22.10647560
 C          3.0321987996       -1.0200800762       -0.1241014443
 C          1.6673200472       -0.5140005116        0.3269319506
 C          1.3590966287        0.8698553327       -0.2393303181
 C         -0.0185952365        1.3776817708        0.1996359196
 C         -1.1228325579        0.5308630486       -0.3492130184
 C         -2.0180040673       -0.1140824194        0.3798279296
 C         -3.1184256881       -0.9595962073       -0.1707290578
 H          3.8172654524       -0.3419862376        0.2035760982
 H          3.2319564572       -2.0043887882        0.2921065262
 H          3.0724709601       -1.0908635072       -1.2088164122
 H          1.6380327645       -0.4696076215        1.4180847009
 H          0.8919092739       -1.2124800038        0.0046701692
 H          2.1238228258        1.5746958351        0.0948169686
 H          1.3969298468        0.8295863572       -1.3304643062
 H         -0.1443952389        2.4021978059       -0.1627740052
 H         -0.0720500613        1.3947691700        1.2900787842
 H         -1.1553350985        0.4587226211       -1.4296359717
 H         -1.9826357243       -0.0434190280        1.4601001682
 H         -3.0853400833       -0.9820503803       -1.2570621577
 H         -4.0858188512       -0.5704374375        0.1446694933
 H         -3.0341361133       -1.9782424092        0.2063005291
