  21
        -22.10647560
 C          3.0321987996       -1.0200800762       -0.1241014443
 C          1.6673200472       -0.5140005116        0.3269319506
 C          1.3590966287        0.8698553327       -0.2393303181
 C         -0.0185952365        1.3776817708        0.1996359196
 C         -1.1228325579        0.5308630486       -0.3492130184
 C         -2.0180040673       -0.1140824194        0.3798279296
 C         -3.1184256881       -0.9595962073       -0.1707290578
 H          3.8172654524       -0.3419862376        0.2035760982
 H          3.2319564572       -2.0043887882        0.2921065262
 H          3.0724709601       -1.0908635072       -1.2088164122
 H          1.6380327645       -0.4696076215        1.4180847009
 H          0.8919092739       -1.2124800038        0.0046701692
 H          2.1238228258        1.5746958351        0.0948169686
 H          1.3969298468        0.8295863572       -1.3304643062
 H         -0.1443952389        2.4021978059       -0.1627740052
 H         -0.0720500613        1.3947691700        1.2900787842
 H         -1.1553350985        0.4587226211       -1.4296359717
 H         -1.9826357243       -0.0434190280        1.4601001682
 H         -3.0853400833       -0.9820503803       -1.2570621577
 H         -4.0858188512       -0.5704374375        0.1446694933
 H         -3.0341361133       -1.9782424092        0.2063005291
  21
        -22.10625875
 C          3.5827730686       -0.6596916412       -0.1690093790
 C          2.4651824188        0.2244884372        0.3717127379
 C          1.1117241683       -0.1371428581       -0.2349951045
 C         -0.0152967503        0.7492008476        0.3048336783
 C         -1.3297608098        0.3953308515       -0.3149922954
 C         -2.3823896641       -0.0531031790        0.3481282734
 C         -3.6909007673       -0.4162173409       -0.2719975421
 H          3.3843457039       -1.7048318546        0.0577884144
 H          3.6635528494       -0.5536317581       -1.2485417328
 H          4.5362046681       -0.3858107800        0.2759840357
 H          2.6906497153        1.2704824607        0.1512253856
 H          2.4122935487        0.1194575421        1.4577468292
 H          1.1628251947       -0.0329766010       -1.3213321074
 H          0.8808089573       -1.1816936646       -0.0130059615
 H          0.2205108490        1.7935520594        0.0797958953
 H         -0.0762132646        0.6424195275        1.3898048104
 H         -1.3810191675        0.5131402315       -1.3904993320
 H         -2.3289021819       -0.1728864451        1.4233150080
 H         -4.4886244316        0.1952510439        0.1480514460
 H         -3.9292572568       -1.4583836993       -0.0629285714
 H         -3.6646616587       -0.2699169347       -1.3487682503
  21
        -22.10569183
 C          2.2831295379       -1.0455552087        0.6508987218
 C          1.7909276378       -0.4019912347       -0.6402979106
 C          1.4015194210        1.0668539294       -0.4694477653
 C          0.1547882779        1.2677496877        0.4002259639
 C         -1.0457053272        0.5990752337       -0.1901956635
 C         -1.7715835979       -0.3268011460        0.4136989342
 C         -2.9677062816       -0.9952576301       -0.1790106424
 H          3.1116313679       -0.4770796444        1.0681087767
 H          1.4875938300       -1.0906808430        1.3895797110
 H          2.6242492930       -2.0601543462        0.4594022125
 H          0.9292136106       -0.9577666771       -1.0163377706
 H          2.5827168525       -0.4656633720       -1.3905757691
 H          2.2373796021        1.6118267548       -0.0251026028
 H          1.2112351525        1.4955470455       -1.4563946515
 H         -0.0391404527        2.3419173052        0.4767006206
 H          0.3339605949        0.8890056559        1.4070143413
 H         -1.3044709258        0.9163653891       -1.1933064769
 H         -1.5113098456       -0.6461400303        1.4156461394
 H         -2.8110579670       -2.0723959473       -0.2269113183
 H         -3.1642817800       -0.6229892212       -1.1813014709
 H         -3.8450118044       -0.8170340435        0.4418439240
  21
        -22.10537896
 C          3.2722548777       -0.6299261019       -0.1967096693
 C          2.4883025814        0.4985614291        0.4641261562
 C          1.0969039104        0.6990364659       -0.1370883766
 C          0.1444643688       -0.4692779981        0.1401972629
 C         -1.2231757152       -0.1842961041       -0.3941094414
 C         -2.3203094198       -0.1018180191        0.3395647327
 C         -3.6835085107        0.1926562735       -0.1932825299
 H          3.3441475575       -0.4646440462       -1.2694975293
 H          4.2791169512       -0.6774280621        0.2112946436
 H          2.7932341929       -1.5904456221       -0.0264577526
 H          3.0496266812        1.4293250145        0.3531444728
 H          2.3922580670        0.2966586556        1.5333392528
 H          0.6586823618        1.6081427905        0.2822505011
 H          1.1866542506        0.8422219554       -1.2163613638
 H          0.0917978550       -0.6491118198        1.2159764930
 H          0.5312986570       -1.3714563748       -0.3395813713
 H         -1.2778911577       -0.0243829476       -1.4640118979
 H         -2.2642743649       -0.2592186965        1.4098016772
 H         -4.3624057888       -0.6280566738        0.0353711011
 H         -3.6567219034        0.3380016547       -1.2701811979
 H         -4.0834213285        1.0915732168        0.2744225509
  21
        -22.10537780
 C          3.0250126394       -0.8630780547        0.4807119834
 C          2.5893404811        0.4007757780       -0.2523824517
 C          1.1232809187        0.3716513728       -0.6853386900
 C          0.1426925320        0.4061390960        0.4919134508
 C         -1.2702673969        0.5013379261        0.0101017950
 C         -2.2056532912       -0.4081888403        0.2260687731
 C         -3.6127761332       -0.3186840988       -0.2646279530
 H          4.0914467837       -0.8277622490        0.6906269323
 H          2.4975662211       -0.9682964333        1.4249595059
 H          2.8234184525       -1.7422497970       -0.1273547971
 H          3.2101973167        0.5224873280       -1.1431808951
 H          2.7581440700        1.2688341818        0.3890451780
 H          0.9291581786        1.2355874389       -1.3258209966
 H          0.9369671283       -0.5271630682       -1.2776758392
 H          0.3712580522        1.2773779858        1.1130023489
 H          0.2591001508       -0.4896759332        1.1027077553
 H         -1.5042918904        1.3867381289       -0.5685950034
 H         -1.9706163583       -1.2948143621        0.8022251145
 H         -3.8447433109       -1.1742104384       -0.8978930758
 H         -3.7684127881        0.5938603051       -0.8344650059
 H         -4.3060735684       -0.3326722433        0.5755919028
  21
        -22.10534390
 C          3.2310635028       -0.8971261684        0.1102681770
 C          1.9388425689       -0.3401077103       -0.4758897728
 C          1.2292048489        0.5859186970        0.5093577918
 C         -0.0204328781        1.2551530482       -0.0801863571
 C         -1.1016166681        0.2690650971       -0.3949679762
 C         -2.2169052496        0.1345777839        0.3030835443
 C         -3.2946651214       -0.8553093148        0.0081228673
 H          3.9168804301       -0.0899014889        0.3583167821
 H          3.0245496167       -1.4609417355        1.0173106309
 H          3.7204717936       -1.5576355086       -0.6013346466
 H          1.2793684840       -1.1686817523       -0.7390666970
 H          2.1646718226        0.2124632365       -1.3910411392
 H          0.9422207763        0.0182521035        1.3975262313
 H          1.9256063561        1.3672101826        0.8237263052
 H          0.2624056612        1.7871466866       -0.9923157811
 H         -0.3971083432        1.9860376734        0.6385455634
 H         -0.9245063689       -0.3711647814       -1.2493314021
 H         -2.3970712261        0.7765485825        1.1568934911
 H         -3.0402014572       -1.4608979850       -0.8579860104
 H         -4.2353510155       -0.3410059085       -0.1850685947
 H         -3.4473263903       -1.5108344819        0.8646855102
  21
        -22.10483915
 C          1.7042743667       -1.3731499002       -0.1961354462
 C          2.1547568557       -0.0588426652        0.4304525703
 C          1.5095166709        1.1749631457       -0.2040642824
 C          0.0586315021        1.4169678471        0.2291149634
 C         -0.9156160822        0.4395682290       -0.3470163544
 C         -1.8225839372       -0.2259569883        0.3494445408
 C         -2.8094734253       -1.1837439976       -0.2322182839
 H          0.6339870976       -1.5116859564       -0.0725969654
 H          1.9328673064       -1.3838264022       -1.2597811075
 H          2.2184757262       -2.2091227711        0.2727618520
 H          3.2393656728        0.0243200249        0.3231204547
 H          1.9305054017       -0.0705500119        1.4993847695
 H          2.0945621656        2.0529721135        0.0802681255
 H          1.5532537028        1.0868060153       -1.2918152763
 H         -0.2284591962        2.4182508267       -0.1094618429
 H         -0.0050917889        1.4044532415        1.3192526515
 H         -0.8608345812        0.3107554597       -1.4211792734
 H         -1.8791393718       -0.0954462323        1.4233596993
 H         -3.8254285770       -0.8550989530       -0.0163753576
 H         -2.6818086845       -2.1714689768        0.2101055422
 H         -2.6863445381       -1.2622453789       -1.3095165786
  21
        -22.10482614
 C          3.3302674047       -0.9519359301        0.0126978945
 C          2.4171252722        0.2677876599        0.0533045123
 C          0.9418859891       -0.1258291079        0.0093376543
 C          0.0322959593        1.0983807315        0.0491375979
 C         -1.4379740675        0.8087741795        0.0137675847
 C         -2.0198507253       -0.3768039074       -0.0522993115
 C         -3.4986509003       -0.5866042872       -0.0839293869
 H          4.3742379235       -0.6500580980        0.0454665796
 H          3.1334448558       -1.6028217647        0.8616799753
 H          3.1649507549       -1.5206673806       -0.8996506665
 H          2.6427339255        0.9175990836       -0.7954883644
 H          2.6119836857        0.8359181057        0.9659218934
 H          0.7495194775       -0.6918940031       -0.9045650628
 H          0.7183376828       -0.7721839034        0.8607622922
 H          0.2716957481        1.7510232332       -0.7971814466
 H          0.2445004373        1.6735874482        0.9566403662
 H         -2.0598939293        1.6964849643        0.0477797333
 H         -1.4298467217       -1.2817305945       -0.0879179547
 H         -3.7847019982       -1.1102455798       -0.9954547113
 H         -4.0283727479        0.3618609571       -0.0424130446
 H         -3.8093066990       -1.2009825201        0.7603895299
  21
        -22.10444234
 C          3.0242109628       -1.0248655928       -0.1201688657
 C          1.6586085382       -0.5148832981        0.3242041142
 C          1.3579784891        0.8712482214       -0.2404902400
 C         -0.0181349794        1.3843447081        0.1979004154
 C         -1.1242240551        0.5373800761       -0.3458239275
 C         -2.0101380228       -0.1155377276        0.3886654233
 C         -3.1085223031       -0.9659234048       -0.1758362045
 H          3.8101026026       -0.3515006455        0.2153160359
 H          3.2169229720       -2.0116320358        0.2933571105
 H          3.0712653398       -1.0914361906       -1.2049399966
 H          1.6230135108       -0.4731535142        1.4152769206
 H          0.8826962815       -1.2101721018       -0.0038272810
 H          2.1253163775        1.5720538569        0.0960121974
 H          1.3968530645        0.8326241695       -1.3316122263
 H         -0.1413626012        2.4077123036       -0.1683576337
 H         -0.0704086021        1.4054911376        1.2883813868
 H         -1.1664416108        0.4689170718       -1.4261799101
 H         -1.9602233570       -0.0458196635        1.4675694337
 H         -3.7483393077       -0.3794773850       -0.8334313364
 H         -3.7203292752       -1.3861547437        0.6169520453
 H         -2.6947188552       -1.7843271283       -0.7635598465
  21
        -22.10435906
 C          2.7880252135       -0.6989394221        0.6198240418
 C          1.9566673679       -0.4719846660       -0.6379306012
 C          1.2100443059        0.8627481805       -0.6373066165
 C          0.1614980437        1.0098781601        0.4755210166
 C         -0.9217759295       -0.0183815236        0.3809839859
 C         -2.1499657052        0.2266830583       -0.0441263589
 C         -3.2338179381       -0.7935687880       -0.1578742470
 H          2.1532870001       -0.7978270013        1.4964862142
 H          3.3745776390       -1.6096413299        0.5235504525
 H          3.4700621199        0.1335144852        0.7795003426
 H          1.2437172667       -1.2892767508       -0.7582232147
 H          2.6202099871       -0.4877707391       -1.5062158927
 H          1.9357362902        1.6736546044       -0.5372831161
 H          0.7078545771        0.9814229476       -1.6004900409
 H         -0.2787921653        2.0065492488        0.3986391284
 H          0.6534119135        0.9334311191        1.4470576442
 H         -0.6494571317       -1.0236018491        0.6757785028
 H         -2.4265507474        1.2324663394       -0.3367166598
 H         -3.5834277906       -0.8566758238       -1.1877741253
 H         -4.0838890935       -0.5107324098        0.4619620915
 H         -2.8805852149       -1.7730520542        0.1545584661
  21
        -22.10390406
 C          2.8049882058       -1.1790382712       -0.1245592310
 C          1.6801935678       -0.3590131603        0.4961981368
 C          1.1786818548        0.7265742285       -0.4542255036
 C          0.0218688041        1.5310766368        0.1367611163
 C         -1.2768514429        0.7966718483        0.2992198443
 C         -1.6374041223       -0.3421838278       -0.2680505858
 C         -2.9662886366       -0.9952735936       -0.0703349465
 H          2.4604294730       -1.6753443126       -1.0292130856
 H          3.6444737778       -0.5382613930       -0.3857664820
 H          3.1547292561       -1.9377460600        0.5712431936
 H          2.0385925645        0.1099316318        1.4156335120
 H          0.8522867286       -1.0174231247        0.7644885329
 H          2.0022623700        1.4109814582       -0.6722662575
 H          0.8714787200        0.2772598187       -1.4000862054
 H         -0.1668146841        2.4029252189       -0.4993709953
 H          0.3226455590        1.9155663788        1.1158850526
 H         -1.9870168448        1.3033181308        0.9434705735
 H         -0.9639060328       -0.8748732805       -0.9247007984
 H         -3.5940506818       -0.4093287786        0.5964888952
 H         -2.8375688441       -1.9913642056        0.3521252071
 H         -3.4759973984       -1.1065406577       -1.0267892283
  21
        -22.10384234
 C          3.1443740107       -0.3213013674        0.6797223450
 C          2.4142162995       -0.0442794553       -0.6299541400
 C          0.9046998159       -0.2772057894       -0.5424311272
 C          0.1995653704        0.7374476131        0.3531579451
 C         -1.2939662704        0.6176982259        0.3991449016
 C         -2.0453345738       -0.2955602648       -0.1925191050
 C         -3.5351620249       -0.3498402964       -0.0946707156
 H          2.9320698186       -1.3303812952        1.0261118024
 H          4.2184089153       -0.2257433533        0.5387134246
 H          2.8420387746        0.3794743035        1.4532494099
 H          2.8206906531       -0.7003620834       -1.4033188283
 H          2.6027393019        0.9861346343       -0.9402164642
 H          0.4840192608       -0.2093142404       -1.5482499318
 H          0.7195997040       -1.2855929108       -0.1663926947
 H          0.4496756678        1.7482227041        0.0139439590
 H          0.5727562861        0.6464462061        1.3773711494
 H         -1.7755831588        1.3817039621        0.9996353740
 H         -1.5996600744       -1.0735294891       -0.7961489993
 H         -3.9800912426       -0.2751073201       -1.0862530235
 H         -3.9156150788        0.4597155419        0.5232046328
 H         -3.8493540642       -1.2996034919        0.3366583585
  21
        -22.10307045
 C          1.8504868617       -1.4091756435       -0.0672612574
 C          2.1946333812        0.0316464432        0.2949843691
 C          1.3422746241        1.0582167056       -0.4583849436
 C          0.0414453833        1.4466739101        0.2626407309
 C         -0.8866195145        0.2916297275        0.4791204408
 C         -1.8784215445       -0.0297217449       -0.3354794516
 C         -2.7978910286       -1.1899530356       -0.1440187914
 H          2.4512118025       -2.1013761116        0.5186126156
 H          0.8005512925       -1.6165311788        0.1187206436
 H          2.0505079022       -1.5902476317       -1.1212921125
 H          3.2478098062        0.2024225741        0.0594710243
 H          2.0739068228        0.1794585941        1.3700693853
 H          1.9232296258        1.9726445106       -0.5984114243
 H          1.0979114422        0.6663213108       -1.4476822304
 H         -0.4628219519        2.2061686089       -0.3396260790
 H          0.2959559899        1.8916521597        1.2273487702
 H         -0.7065952492       -0.3044280737        1.3646661453
 H         -2.0640533168        0.5703195935       -1.2180306553
 H         -2.5528323058       -1.7351218239        0.7642436816
 H         -2.7268472209       -1.8694610831       -0.9928331080
 H         -3.8299814124       -0.8470460028       -0.0818424041
  21
        -22.10291627
 C          2.7097337769       -0.7510481760       -0.5246389486
 C          1.6343551447       -0.6346703253        0.5501311040
 C          1.1008646498        0.7908483809        0.7088923819
 C          0.2233603185        1.2496997876       -0.4556179343
 C         -1.0879044368        0.5367209264       -0.6116396594
 C         -1.7177733407       -0.2007081650        0.2875610610
 C         -3.0391259147       -0.8586336305        0.0574485719
 H          3.0992632884       -1.7657709589       -0.5587511845
 H          2.3090596728       -0.5112143638       -1.5059868937
 H          3.5345766055       -0.0735718726       -0.3136332475
 H          2.0574722379       -0.9565349277        1.5047217162
 H          0.8084360973       -1.3053214825        0.3080708265
 H          0.5308676948        0.8638530802        1.6367892782
 H          1.9485468722        1.4750764637        0.7944000774
 H          0.7808729234        1.1517389861       -1.3901272536
 H          0.0091252347        2.3172661555       -0.3325126388
 H         -1.5561537087        0.6886318554       -1.5780452709
 H         -1.2909009697       -0.3698731052        1.2662981919
 H         -3.7667948801       -0.5044979003        0.7868714948
 H         -2.9492836028       -1.9377038420        0.1791539852
 H         -3.4118837603       -0.6475914054       -0.9418789269
  21
        -22.10277571
 C          3.3337412419       -0.9488414994        0.0120561712
 C          2.4181766404        0.2689859037        0.0545177630
 C          0.9438045217       -0.1277687312        0.0110505913
 C          0.0318193265        1.0947503115        0.0480274943
 C         -1.4374379717        0.8024674907        0.0092220601
 C         -2.0177755498       -0.3850698254       -0.0490672809
 C         -3.5055049611       -0.5773507666       -0.0839685263
 H          3.1410225714       -1.5995444899        0.8621649830
 H          3.1666168328       -1.5185583495       -0.8993427728
 H          4.3772322517       -0.6447348070        0.0411422985
 H          2.6420490779        0.9199547000       -0.7937970645
 H          2.6124270660        0.8365984239        0.9674927340
 H          0.7526597411       -0.6958232224       -0.9018549600
 H          0.7214401262       -0.7730494977        0.8635896637
 H          0.2720593581        1.7471544980       -0.7982073810
 H          0.2410207778        1.6712996084        0.9553742150
 H         -2.0621128689        1.6886278198        0.0333228259
 H         -1.4221079921       -1.2854348315       -0.0740399040
 H         -3.9679772220       -0.1539000588        0.8065124653
 H         -3.7586183307       -1.6322096888       -0.1351750696
 H         -3.9369774188       -0.0758811486       -0.9490884669
  21
        -22.10259766
 C          2.3011946433       -1.2494661166        0.1861718782
 C          2.5057055885        0.2391309763       -0.0684056087
 C          1.2461295810        0.9638567961       -0.5457214302
 C          0.1056571532        0.9999655024        0.4896959976
 C         -0.9161513497       -0.0681162327        0.2546046189
 C         -2.1891208248        0.1628357927       -0.0200994308
 C         -3.2131709344       -0.8948965230       -0.2689888710
 H          1.8924781396       -1.7336514134       -0.6981608227
 H          3.2503345286       -1.7226310066        0.4283514605
 H          1.6217754870       -1.4117424084        1.0185687540
 H          3.2795533943        0.3629251623       -0.8302446493
 H          2.8668407443        0.7153047011        0.8464727374
 H          1.5258464834        1.9895905235       -0.7946082707
 H          0.8827750910        0.4938048235       -1.4622948344
 H         -0.3914977938        1.9711703464        0.4493290705
 H          0.5293472602        0.8868366373        1.4910889496
 H         -0.5584525851       -1.0877207786        0.3007046485
 H         -2.5528788849        1.1820269681       -0.0724640328
 H         -4.0224540574       -0.8134548502        0.4557321578
 H         -2.7738765813       -1.8865209224       -0.1959996800
 H         -3.6460001435       -0.7729134291       -1.2612950891
  21
        -22.10235428
 C          2.0967946286       -1.2588312101       -0.3799064585
 C          2.4095969812        0.1363745752        0.1472987292
 C          1.2106071918        0.8603680162        0.7610056233
 C          0.1053177891        1.2531526825       -0.2373497030
 C         -0.8941555469        0.1616807003       -0.4708447608
 C         -2.0369931623        0.0553797454        0.1871985480
 C         -3.0369476823       -1.0350495623       -0.0106531963
 H          1.4701949095       -1.2104303471       -1.2652685825
 H          3.0173318082       -1.7735858789       -0.6467686231
 H          1.5810486889       -1.8449142718        0.3774615752
 H          2.8213603940        0.7452229848       -0.6611828685
 H          3.1797423360        0.0526876884        0.9186023428
 H          0.7737674963        0.2399935970        1.5467256444
 H          1.5823547555        1.7740402040        1.2308082573
 H          0.5657806748        1.5460243691       -1.1828839213
 H         -0.4212665272        2.1213609556        0.1654023447
 H         -0.6410447292       -0.5829216140       -1.2128899978
 H         -2.2998794353        0.7975786202        0.9314502510
 H         -2.7014978999       -1.7373453348       -0.7695954457
 H         -3.9952402953       -0.6163829796       -0.3160101951
 H         -3.1954151614       -1.5738373591        0.9228935207
