! r2scan-3c def2/J RI DEFGRID2 scfconv6 printgap
%output
    printlevel normal
end
* xyz 0 1
C 5.1521066174 -1.5114204854 -1.5587541318
C 3.7037830519 -1.7099966991 -1.9617496797
O 2.8463502467 -1.7278573704 -0.8018226516
P 2.0937117084 -0.4300927542 -0.2712609645
S 3.2048309966 1.1585803003 0.0413851135
O 1.3545080609 -1.0249333622 0.9897467741
C 1.8548326692 -0.9277651044 2.3423544233
C 0.8100152696 -0.2718062162 3.2233560512
S 0.5227683835 -0.2175300782 -1.6677891097
C 0.0712373022 1.4832432678 -1.2321605408
S -0.5400175276 1.6236030737 0.4628460426
P -2.2602676072 0.4059046092 0.2080618306
S -3.1570859632 0.5571866219 -1.5343899066
O -3.1027374182 0.7232635492 1.5125419667
C -3.4180460292 2.0390838389 2.0045874905
C -4.1167844427 2.9001248163 0.9724056222
O -1.8220818194 -1.0679523904 0.5901784472
C -2.0676883064 -2.2266096778 -0.2348463371
C -0.9715716586 -3.2433131515 0.0081813721
H 5.283430531 -0.5383955986 -1.0905335994
H 5.4523298904 -2.2826121131 -0.8549885273
H 5.7796139664 -1.5662613599 -2.4424199797
H 3.5509428413 -2.6833704423 -2.4314372239
H 3.37335186 -0.92124662 -2.6435007682
H 2.0589320282 -1.9522127055 2.6592105031
H 2.7857961271 -0.3519120857 2.3398572794
H 1.1166304148 -0.3532835511 4.2611022828
H 0.7017241157 0.7786294691 2.963750178
H -0.149976331 -0.764712891 3.0892746479
H -0.7081291136 1.7837240562 -1.9324146709
H 0.9475666898 2.1270518277 -1.3027903971
H -4.0630706551 1.8420895318 2.8627532459
H -2.4905584997 2.5118466511 2.3397048932
H -4.9975316914 2.3912603108 0.5877680903
H -4.4142971248 3.8389085574 1.4283716612
H -3.4473471013 3.1073353758 0.138741608
H -3.0441663238 -2.6258024636 0.0503551604
H -2.1039243854 -1.9185241126 -1.2852884626
H -1.180831503 -4.1318473676 -0.5785813094
H -0.005138179 -2.8413159162 -0.2859811369
H -0.9347866711 -3.5052164746 1.0615605207
*
