! pbe def2-sv(p) def2/J RI DEFGRID1 loosescf d4 GCP(DFT/SV(P)) printgap
%output
    printlevel normal
end
* xyz 0 1
C 5.1338465599 -3.1845360831 -0.1880169093
C 4.3071059639 -2.0291332526 0.3403555112
O 3.0912164442 -1.9620955599 -0.4335166465
C 2.3358235148 -0.8975011574 -0.3131238536
O 2.6033339414 0.0566313671 0.393118894
C 1.0732209596 -1.0036753535 -1.1328562788
C 0.4265299791 0.3657674723 -1.323656444
H 0.8206110946 0.8817792839 -2.2004476538
C 0.584997683 1.265458158 -0.1104871856
O -0.0299862064 1.0678901377 0.9231374305
O 1.2986663963 2.3256847196 -0.3696895099
C 1.5349940643 3.2679030634 0.6970409748
C 1.9486910132 4.5879256535 0.0770293025
S -1.3693840495 0.2279941534 -1.5824518465
P -2.1053774174 -0.3120112095 0.3530047343
S -1.2193703049 -1.6895694858 1.4344646686
O -2.5955030117 0.9850142254 1.1199689042
C -3.5586481421 1.8916837847 0.5489401737
O -3.545831977 -0.8363016162 -0.1432570739
C -3.7035468661 -2.0901482806 -0.8113810659
H 4.5718631641 -4.1095459833 -0.1037041914
H 5.3843166006 -3.0189860284 -1.2314096652
H 6.0470180362 -3.2652366358 0.3919536186
H 4.8288867824 -1.0716532114 0.2465848427
H 4.0326801746 -2.1723187164 1.3899447121
H 0.4100456515 -1.6609879789 -0.5560609474
H 1.2758853975 -1.485499817 -2.0878640134
H 0.6195916342 3.3544414351 1.2910133763
H 2.3223804236 2.8461184906 1.3288843366
H 2.8416710453 4.4489378345 -0.5243631452
H 1.1536752942 4.9719066785 -0.5552778707
H 2.1551880759 5.3022550536 0.8668820714
H -4.5448098742 1.4311233499 0.5561659325
H -3.2769519773 2.149341289 -0.4727076109
H -3.5346755669 2.7696123534 1.1896866573
H -3.3589919477 -2.0061440064 -1.8415990784
H -4.767916478 -2.3081374147 -0.7788582908
H -3.1398154144 -2.8648877572 -0.2885890325
*
