! pbe def2-sv(p) def2/J RI DEFGRID1 loosescf d4 GCP(DFT/SV(P)) printgap
%output
    printlevel normal
end
* xyz 0 1
C 0.9008425927 -0.6147906629 3.584731411
C 2.1248502913 -0.5175410882 2.6967892892
O 1.7500359062 0.1633290238 1.4778420468
P 2.4187792234 -0.1618988505 0.0777240044
S 2.8656911194 -2.0474654794 -0.2468582558
O 3.670644569 0.818880328 0.1019150672
C 4.7723330143 0.6863038405 -0.8134715172
C 4.3682591417 1.0040371866 -2.2385777674
S 1.0193447115 0.74760596 -1.2039342456
C -0.0594454943 -0.7037951055 -1.3801211417
S -0.9269035523 -1.1421147267 0.1461771914
P -2.5583386427 0.232248869 0.0066550755
S -2.9051535738 0.9462079998 -1.7918610637
O -2.3629880192 1.2497058863 1.2039258886
C -1.2195834047 2.094115912 1.4139363749
C -1.1551232514 3.2377192411 0.4203867295
O -3.780549372 -0.5202177605 0.6680032491
C -4.7092090438 -1.2916202286 -0.1130728657
C -4.0918514033 -2.5791866976 -0.6221657063
H 1.1680400199 -1.1309721837 4.5010602756
H 0.5324419849 0.378233315 3.8256654266
H 0.1147356843 -1.1697694701 3.0781385724
H 2.5075655332 -1.5109315961 2.4385869466
H 2.9194350053 0.0646811074 3.1684614265
H 5.5129493778 1.3925399349 -0.4361129539
H 5.1592586212 -0.3352239726 -0.7414401537
H 3.8858722083 1.9771074888 -2.2872180887
H 5.2502721887 1.0058618574 -2.8709359188
H 3.6731900353 0.2497147101 -2.6055654668
H 0.5436040216 -1.567484892 -1.6571568011
H -0.7869012958 -0.4521487576 -2.1534101573
H -1.3609650355 2.4647337214 2.4313152597
H -0.3085934025 1.4888524443 1.3719738288
H -0.3374569034 3.8985739968 0.6898672753
H -0.983014922 2.8620152167 -0.5867390623
H -2.0884544399 3.7948456687 0.4296044418
H -5.5325940278 -1.4855201013 0.5756153093
H -5.0609599843 -0.6765488016 -0.9479629833
H -4.8605024304 -3.1857369434 -1.090242731
H -3.3207259302 -2.357976362 -1.3587865622
H -3.6444117865 -3.1334085297 0.1990252445
*
