  18
  -22.2159407300000       0.146807782749465      !md4
 C         -2.7470673379       -0.0000684177        0.7341548888
 C         -1.9716211258        0.0000818089       -0.5853587844
 C         -0.4919301593        0.0000321043       -0.3254938886
 C          0.2016006751       -1.1949204768       -0.1800889663
 C          1.5566900858       -1.1969545834        0.0997907577
 C          2.2383916487       -0.0000625180        0.2406679952
 C          1.5567611447        1.1969145993        0.0998521805
 C          0.2016797297        1.1949618354       -0.1800355596
 H         -3.8176027359       -0.0001260330        0.5451427162
 H         -2.4960489454        0.8814780955        1.3196274845
 H         -2.4959064112       -0.8815549700        1.3196063339
 H         -2.2450914320        0.8850949491       -1.1627763727
 H         -2.2451863343       -0.8847346830       -1.1630226733
 H         -0.3253805090       -2.1320481693       -0.2903923577
 H          2.0826853043       -2.1342365704        0.2072075873
 H          3.2961885156       -0.0000861881        0.4577175967
 H          2.0828325982        2.1342362659        0.2073233003
 H         -0.3252741403        2.1321637788       -0.2903213551
  18
  -22.2159406400000       0.146793801803723      !mtd8
 C         -2.7412771961        0.0014959579       -0.7557860095
 C         -1.9761762290       -0.0008500979        0.5697653879
 C         -0.4944873533       -0.0005409715        0.3215155222
 C          0.2004711648       -1.1952722336        0.1811990187
 C          1.5577599591       -1.1968776092       -0.0878832889
 C          2.2402609556        0.0002444257       -0.2229034253
 C          1.5572373331        1.1969798149       -0.0870602176
 C          0.1999742736        1.1945985322        0.1820174732
 H         -2.4853985628        0.8839020016       -1.3378416294
 H         -3.8132398541        0.0016094324       -0.5751779008
 H         -2.4860351873       -0.8791780941       -1.3407688174
 H         -2.2542839767       -0.8867682448        1.1436030288
 H         -2.2540830258        0.8830843960        1.1467456444
 H         -0.3271556095       -2.1325983002        0.2868453207
 H          2.0847859810       -2.1340361742       -0.1916130449
 H          3.2997451794        0.0005541961       -0.4315837980
 H          2.0838507888        2.1344494255       -0.1903308764
 H         -0.3281304572        2.1316290681        0.2881347361
  18
  -22.2159405400000       0.146778268981010      !mtd1
 C         -2.7408795019        0.0029904900       -0.7560923016
 C         -1.9762389294       -0.0018061576        0.5697378326
 C         -0.4945064754       -0.0010802663        0.3218103404
 C          0.2006874189       -1.1956013062        0.1809800701
 C          1.5579296137       -1.1968040028       -0.0883278857
 C          2.2401438262        0.0005072928       -0.2230806822
 C          1.5568861318        1.1970671114       -0.0867012855
 C          0.1996826590        1.1942903327        0.1826873219
 H         -3.8129436754        0.0014152757       -0.5759762048
 H         -2.4842917934       -0.8759011561       -1.3431503551
 H         -2.4857722746        0.8871665463       -1.3359263059
 H         -2.2545191665       -0.8886499257        1.1420053194
 H         -2.2543531696        0.8811872620        1.1480456585
 H         -0.3267391505       -2.1331043989        0.2862867335
 H          2.0851062260       -2.1338530897       -0.1926553270
 H          3.2995371856        0.0011220312       -0.4322184809
 H          2.0832815089        2.1346782527       -0.1896470965
 H         -0.3285572682        2.1311409807        0.2894737149
  18
  -22.2159404400000       0.146762737802438      !gc
 C         -2.7408412509       -0.0007920492       -0.7561019460
 C         -1.9762402096        0.0004789564        0.5697600015
 C         -0.4945254619        0.0003357024        0.3217424689
 C          0.2000017879       -1.1947373123        0.1820915606
 C          1.5572094099       -1.1969858951       -0.0873046614
 C          2.2401162832       -0.0001836125       -0.2231172827
 C          1.5576081713        1.1968645455       -0.0876599938
 C          0.2003563570        1.1951325510        0.1815321896
 H         -2.4850225764       -0.8828436184       -1.3387013572
 H         -2.4849344771        0.8802122209       -1.3402345121
 H         -3.8128801741       -0.0005988033       -0.5759074773
 H         -2.2544612474       -0.8839714362        1.1458097893
 H         -2.2544781675        0.8859322410        1.1442377613
 H         -0.3279532916       -2.1317953963        0.2885709991
 H          2.0839674335       -2.1343767035       -0.1903256384
 H          3.2995552123       -0.0003655131       -0.4320084996
 H          2.0845386168        2.1340534131       -0.1916211228
 H         -0.3273486695        2.1324083475        0.2872646833
  18
  -22.2159404200000       0.146759631763608      !gc
 C         -2.7467915878        0.0005922906        0.7343686794
 C         -1.9716630761       -0.0002627247       -0.5853886328
 C         -0.4919313899       -0.0001867253       -0.3257439398
 C          0.2017478251       -1.1950677938       -0.1804584095
 C          1.5568026766       -1.1969501703        0.0996743343
 C          2.2382945765        0.0000371750        0.2408791352
 C          1.5565161140        1.1969386751        0.1000976078
 C          0.2015043160        1.1948277452       -0.1800688041
 H         -2.4950536872       -0.8802378552        1.3205664880
 H         -3.8173825971       -0.0002210077        0.5457561136
 H         -2.4961015875        0.8828017989        1.3189356145
 H         -2.2452403299        0.8843040457       -1.1634988579
 H         -2.2453452378       -0.8855746849       -1.1623192671
 H         -0.3250866118       -2.1322983683       -0.2908814280
 H          2.0828987375       -2.1342422384        0.2071374166
 H          3.2960363489        0.0001332425        0.4582228067
 H          2.0823979010        2.1342697724        0.2079375158
 H         -0.3256066415        2.1319176879       -0.2902110060
  18
  -22.2159403800000       0.146753419883703      !md1
 C         -2.7468864106       -0.0012009480        0.7343040673
 C         -1.9716356540        0.0007234736       -0.5853713046
 C         -0.4919209085        0.0003944688       -0.3257134068
 C          0.2013022868       -1.1946803110       -0.1798990517
 C          1.5563596953       -1.1969766302        0.1001236575
 C          2.2383144216       -0.0002071361        0.2407924735
 C          1.5569964320        1.1969021308        0.0996194922
 C          0.2019648050        1.1951934726       -0.1804893772
 H         -2.4944818881        0.8787407199        1.3215136692
 H         -2.4968718948       -0.8842215247        1.3179298909
 H         -3.8174806330        0.0006537308        0.5457154078
 H         -2.2452289502        0.8864206240       -1.1616683982
 H         -2.2452899922       -0.8833735168       -1.1640983652
 H         -0.3259138167       -2.1317265426       -0.2899293224
 H          2.0820329888       -2.1344151702        0.2081515710
 H          3.2960220906       -0.0004135119        0.4582426522
 H          2.0833045033        2.1341060456        0.2068176290
 H         -0.3247574071        2.1324592484       -0.2911077485
  18
  -22.2139165200000       1.723798795884657E-002 !mtd4
 C         -2.8523328586       -0.6600191873        0.3486014563
 C         -1.9755788568        0.4115631572       -0.2907890664
 C         -0.4917415732        0.2019190759       -0.1336374516
 C          0.0720456228       -1.0444979832        0.1047230260
 C          1.4442948032       -1.1905625480        0.2237762004
 C          2.2782424838       -0.0936030167        0.1028240138
 C          1.7288704061        1.1547599753       -0.1385655449
 C          0.3587444543        1.2974750392       -0.2534687556
 H         -3.8958723107       -0.3589572649        0.2963802478
 H         -2.5855556020       -0.7986503152        1.3938417169
 H         -2.7519460721       -1.6112094837       -0.1677034121
 H         -2.2303084017        1.3837911922        0.1384781784
 H         -2.2015772701        0.4657411658       -1.3606433807
 H         -0.5564070321       -1.9157017313        0.2010382126
 H          1.8628702798       -2.1685638667        0.4119239106
 H          3.3478053390       -0.2088921822        0.1962124612
 H          2.3698811365        2.0189021018       -0.2345819332
 H         -0.0626521155        2.2755311289       -0.4395502666
  18
  -22.2139152600000       1.721501942557365E-002 !gc
 C         -2.8495347841        0.7433981101       -0.1471417372
 C         -1.9780821314       -0.4799619555        0.1166583455
 C         -0.4928760076       -0.2333446811        0.0545444131
 C          0.3584140423       -1.3105405064       -0.1754535057
 C          1.7295409184       -1.1409763400       -0.2214266984
 C          2.2791642416        0.1173509319       -0.0398289055
 C          1.4444558790        1.1961433000        0.1900671191
 C          0.0711615431        1.0221186064        0.2387064359
 H         -2.7549232603        1.4744730961        0.6515487064
 H         -3.8932488424        0.4441343224       -0.2058389830
 H         -2.5726783049        1.2140081359       -1.0877777983
 H         -2.2255878178       -1.2576722837       -0.6102829712
 H         -2.2166574851       -0.8811524926        1.1069704209
 H         -0.0630123862       -2.2955060497       -0.3205000558
 H          2.3711394692       -1.9910000462       -0.4022112211
 H          3.3495075263        0.2546674963       -0.0782464657
 H          1.8631754124        2.1816596320        0.3331842523
 H         -0.5578920041        1.8790038784        0.4209892348
  18
  -22.2139128200000       1.717062765872097E-002 !mtd4
 C         -2.8529678537        0.6643953272        0.3409875450
 C         -1.9756685210       -0.4147961207       -0.2844771794
 C         -0.4917189165       -0.2030750067       -0.1306149226
 C          0.3593636220       -1.2979036734       -0.2532297358
 C          1.7295771370       -1.1543191869       -0.1407545223
 C          2.2784733010        0.0942755656        0.1005635356
 C          1.4439859947        1.1905147631        0.2240565394
 C          0.0715800927        1.0435304372        0.1077808733
 H         -2.5884597222        0.8144197262        1.3852254573
 H         -3.8965471669        0.3634781788        0.2898330797
 H         -2.7505661250        1.6096379365       -0.1857286130
 H         -2.2017661779       -0.4830446948       -1.3534778829
 H         -2.2298871325       -1.3815456596        0.1573488018
 H         -0.0616953843       -2.2760702104       -0.4395849907
 H          2.3711389943       -2.0178666613       -0.2387399793
 H          3.3481472342        0.2103005880        0.1919364900
 H          1.8622345772        2.1686605864        0.4121040258
 H         -0.5573189575        1.9141315006        0.2063708103
  18
  -22.2139049700000       1.702858496128653E-002 !mtd4
 C         -2.8546002755        0.6756910047        0.3196587083
 C         -1.9757883550       -0.4233832380       -0.2673734468
 C         -0.4917356025       -0.2061565434       -0.1219086016
 C          0.3610032681       -1.2990876242       -0.2515207065
 C          1.7314504090       -1.1530218222       -0.1466545447
 C          2.2792064005        0.0963204590        0.0938772753
 C          1.4431586820        1.1904266116        0.2245829781
 C          0.0702152571        1.0409525177        0.1161060654
 H         -2.7472567878        1.6039514582       -0.2356015776
 H         -2.5965352012        0.8570952602        1.3604583624
 H         -3.8983874682        0.3747682287        0.2715713587
 H         -2.2017473523       -0.5295332552       -1.3333122757
 H         -2.2289789196       -1.3745827739        0.2078238437
 H         -0.0593403285       -2.2776452588       -0.4373136655
 H          2.3740944197       -2.0151102578       -0.2499379615
 H          3.3491734628        0.2143769388        0.1793939744
 H          1.8603970280        2.1690586543        0.4123492525
 H         -0.5595341546        1.9102179504        0.2205929208
  18
  -22.2138987400000       1.691669233206857E-002 !mtd4
 C         -2.8564097165       -0.6886288376        0.2929744452
 C         -1.9759995456        0.4333702863       -0.2454464689
 C         -0.4917026621        0.2098174367       -0.1114602560
 C          0.0687724993       -1.0379814988        0.1257822849
 C          1.4422060936       -1.1904456723        0.2249396761
 C          2.2799578389       -0.0987679226        0.0858898996
 C          1.7335446637        1.1514364220       -0.1535180416
 C          0.3628609409        1.3004761860       -0.2494062738
 H         -2.7421109735       -1.5948344851       -0.2965996642
 H         -3.9007045975       -0.3880537541        0.2483326598
 H         -2.6061281362       -0.9085416109        1.3283870237
 H         -2.2278322896        1.3633445557        0.2710154873
 H         -2.2024401728        0.5866862417       -1.3054799764
 H         -0.5620363673       -1.9055415862        0.2372440667
 H          1.8582822134       -2.1696974734        0.4121204810
 H          3.3502167793       -0.2192534225        0.1636519265
 H          2.3775408997        2.0116787692       -0.2635605900
 H         -0.0567199647        2.2794872598       -0.4346892436
  18
  -22.2138978500000       1.690076780266871E-002 !mtd6
 C         -2.8546385651       -0.7534134914       -0.0727033837
 C         -1.9778736892        0.4868102044        0.0563861170
 C         -0.4925358010        0.2337254996        0.0262170199
 C          0.0678064602       -1.0207699807        0.2246556702
 C          1.4421742019       -1.1944896463        0.2011669583
 C          2.2807864056       -0.1169061847       -0.0185029501
 C          1.7343675784        1.1407658281       -0.2155089512
 C          0.3629782731        1.3102193690       -0.1936764699
 H         -2.7450064247       -1.4034834178        0.7916781353
 H         -2.5972874888       -1.3132360838       -0.9689308239
 H         -3.8988988531       -0.4577972441       -0.1406795634
 H         -2.2169170471        0.9962596329        0.9953805391
 H         -2.2207737568        1.1810038226       -0.7524423674
 H         -0.5634357538       -1.8775954219        0.3988284844
 H          1.8582393475       -2.1793995429        0.3557978432
 H          3.3516938464       -0.2541553555       -0.0370828804
 H          2.3791254386        1.9900064684       -0.3885557770
 H         -0.0567026778        2.2942434231       -0.3497337417
  18
  -22.2138963900000       1.687467687688831E-002 !mtd7
 C         -2.8612620766       -0.7409775645        0.1319160367
 C         -1.9769025574        0.4751971008       -0.1127386393
 C         -0.4917701183        0.2252559329       -0.0496253980
 C          0.0646892465       -1.0256415722        0.1767886879
 C          1.4400456794       -1.1912775817        0.2205736695
 C          2.2823090516       -0.1099238208        0.0388854574
 C          1.7391710226        1.1445411199       -0.1878523887
 C          0.3678268765        1.3064003292       -0.2308643956
 H         -3.9072386288       -0.4487891820        0.0750694276
 H         -2.6785732666       -1.1606926071        1.1183469065
 H         -2.6821672414       -1.5084736976       -0.6173136357
 H         -2.2215727529        1.2473690330        0.6225964129
 H         -2.2080698886        0.8912880316       -1.0979689745
 H         -0.5684330757       -1.8863872929        0.3218689075
 H          1.8533783861       -2.1734992355        0.3981148821
 H          3.3535789962       -0.2411009829        0.0730738259
 H          2.3870480532        1.9968699386       -0.3315290724
 H         -0.0503344194        2.2874772754       -0.4083289980
