  18
        -22.21594073
 C         -2.7470673379       -0.0000684177        0.7341548888
 C         -1.9716211258        0.0000818089       -0.5853587844
 C         -0.4919301593        0.0000321043       -0.3254938886
 C          0.2016006751       -1.1949204768       -0.1800889663
 C          1.5566900858       -1.1969545834        0.0997907577
 C          2.2383916487       -0.0000625180        0.2406679952
 C          1.5567611447        1.1969145993        0.0998521805
 C          0.2016797297        1.1949618354       -0.1800355596
 H         -3.8176027359       -0.0001260330        0.5451427162
 H         -2.4960489454        0.8814780955        1.3196274845
 H         -2.4959064112       -0.8815549700        1.3196063339
 H         -2.2450914320        0.8850949491       -1.1627763727
 H         -2.2451863343       -0.8847346830       -1.1630226733
 H         -0.3253805090       -2.1320481693       -0.2903923577
 H          2.0826853043       -2.1342365704        0.2072075873
 H          3.2961885156       -0.0000861881        0.4577175967
 H          2.0828325982        2.1342362659        0.2073233003
 H         -0.3252741403        2.1321637788       -0.2903213551
