! wb97x-v def2-tzvp def2/J RIJCOSX DEFGRID2 scfconv7 GCP(DFT/TZ) printgap
%output
    printlevel normal
end
%cpcm
    smd true
    smdsolvent "water"
end
* xyz 0 1
C 6.094224130094187 0.8606869570176119 -0.46852453647625064
C 4.749256309756948 0.6539876250754464 -1.1127609849088829
O 3.767286105462521 0.499995092233658 -0.027095821994361627
P 2.1849087567759202 0.531806573389609 -0.3146083374024865
S 1.4582193891220063 1.9674905866879453 -1.4017486882331534
O 1.5865289102877234 0.5662277633582988 1.1688039248191737
C 1.9984243924238096 -0.39159376870682644 2.2101364360456874
C 0.9948190641895285 -0.287809908682573 3.3283166296713675
S 1.9304165771018438 -1.4294809606251189 -1.1051562421466963
C 0.1758208242963325 -1.3884540814870496 -1.6249104385545976
S -1.0100421305097342 -1.7974162608407303 -0.2654667299315989
P -2.2835132059542245 -0.10892543348307197 -0.2553561711101553
S -2.7098033026587305 0.6680267343008652 -1.9887629528828779
O -1.5749756513974964 0.845001175772116 0.823192861594724
C -2.0482353151100985 2.226447609541356 1.0190970026115551
C -1.2365941229321746 2.8137424735729994 2.1438700984293138
O -3.5167806561149906 -0.6722103673076558 0.6169214674773023
C -4.5949420757240125 -1.448051007810278 -0.013795504272934805
C -5.621967275793298 -1.7258714552762178 1.0517293645205008
H 6.099060125034234 1.7675238301292775 0.1426093024910948
H 6.365958282545946 0.00507217757978438 0.1559020198642349
H 6.848437646737303 0.9684757289800895 -1.254003648013932
H 4.72696824291455 -0.2532152074935202 -1.724725808205214
H 4.453282959472501 1.5118907983356233 -1.7241904408461342
H 2.0168404068220327 -1.395851544235877 1.774634653485675
H 3.0058363129144565 -0.11726101224924569 2.535142907125926
H 1.2828272375812055 -0.9806257486119327 4.125093003582203
H 0.973350924467138 0.7240537500050849 3.74259004253413
H -0.007263205421639975 -0.5555116378051455 2.981144251823067
H 0.07609853062744208 -2.1562200165871244 -2.395530097932624
H -0.07369997400904223 -0.4124067148325309 -2.055393093974029
H -1.9022391742605407 2.770367458973272 0.08123559531397602
H -3.1157889537795294 2.196199646778148 1.2600366705631907
H -1.5661213212977703 3.843366588537727 2.3146136739904435
H -1.3793033742020877 2.247135263528586 3.0682851956718875
H -0.17255678886593084 2.828868206393334 1.8914533376522322
H -5.007699045856427 -0.8535622016941028 -0.8339376899756888
H -4.164897808559704 -2.371154438267915 -0.416328874488224
H -6.442495666187138 -2.299602534516306 0.6101903954045867
H -5.192857101469089 -2.310864307164056 1.8699132886474334
H -6.029457454287496 -0.7934916208517185 1.4526352753192013
*
