! pbe def2-sv(p) def2/J RI DEFGRID1 loosescf d4 GCP(DFT/SV(P)) printgap
%output
    printlevel normal
end
* xyz 0 1
C 4.3124452508 -2.4833533504 0.0890395577
C 4.7357331668 -1.0291938418 0.1339970878
O 3.6826131458 -0.172827282 0.6087136949
P 2.3585249267 0.0954840658 -0.2284893406
S 2.6161075851 0.2801201081 -2.1677622394
O 1.7558998607 1.3532433756 0.5246258769
C 1.9985582854 2.703918659 0.0870428923
C 3.4430105412 3.1086834992 0.2930257304
S 1.0063205641 -1.38488539 0.4260459005
C -0.1913821637 -1.1618691487 -0.9161048717
S -1.0315574775 0.4511536043 -0.8916912591
P -2.6720145893 -0.1134357659 0.3459172155
S -3.9887820671 1.2791753881 0.7405867159
O -1.9985448671 -0.8380753637 1.5870355406
C -1.8244978952 -0.1748846975 2.8515651182
C -0.832813064 0.96854317 2.7728023464
O -3.2390535663 -1.4305615068 -0.3423034695
C -4.3147454516 -1.3767999414 -1.296144763
C -3.8835891726 -0.762473859 -2.6134441549
H 5.1712336041 -3.1002335015 -0.1556095119
H 3.9089011117 -2.7894732755 1.0509387938
H 3.5474585261 -2.6252337377 -0.6732517882
H 5.0378571794 -0.6867356635 -0.8610252709
H 5.5464925605 -0.8666297677 0.8453738839
H 1.7171940071 2.7814283027 -0.9682534966
H 1.3172867846 3.3029716612 0.692752346
H 3.7348747116 2.9440552978 1.3269075816
H 4.0888282513 2.5164343749 -0.354426347
H 3.5621597653 4.1585925972 0.0446344479
H -0.9261446364 -1.9569618547 -0.8170380368
H 0.3336630595 -1.2140969699 -1.8696626662
H -2.7997732241 0.1922117108 3.1863755719
H -1.4746745114 -0.9669857029 3.514799415
H -0.7138085686 1.4088591798 3.7576210778
H 0.1339025438 0.6187645793 2.4183660431
H -1.2041230436 1.7312884144 2.0874645933
H -4.6119808575 -2.4197103009 -1.4150467988
H -5.1380798605 -0.803537337 -0.8584190064
H -3.0259681311 -1.291460591 -3.0216003364
H -4.7063652181 -0.8173122179 -3.3191262269
H -3.6150404079 0.2833822733 -2.466553181
*
