! pbe def2-sv(p) def2/J RI DEFGRID1 loosescf d4 GCP(DFT/SV(P)) printgap
%output
    printlevel normal
end
* xyz 0 1
C 1.2308477987 -1.4884805694 -2.2221228156
C 2.5422993536 -0.740628613 -2.1043094348
O 2.5662530985 0.1550779612 -0.96786255
P 2.6307488065 -0.2507606994 0.5558150446
S 3.364896313 1.2073687156 1.6368658547
O 3.466928687 -1.5993890358 0.5167552231
C 4.1428813669 -2.1287652142 1.6738632774
C 3.1786289011 -2.5535223491 2.7615837822
S 0.6735760507 -0.8582152723 1.1491896213
C 0.0130801473 0.8068041507 1.357641522
S -0.2423804914 1.6555394111 -0.2349162319
P -2.1517683013 0.8697806835 -0.6914027765
S -2.5998466354 0.9391908502 -2.5970196454
O -2.987172552 1.7348389555 0.347120548
C -4.3360472092 1.4108110895 0.7509652736
C -5.3444888517 1.7116076786 -0.3389728031
O -2.2311275609 -0.5775909063 -0.0354589922
C -2.2282677183 -1.8138901871 -0.7734210878
C -3.5583057746 -2.5141472809 -0.5753200972
H 1.1104517688 -2.1781287289 -1.3896982709
H 0.3983219146 -0.785966438 -2.2309088679
H 1.2245635616 -2.0483102277 -3.1520402231
H 2.6958169925 -0.0695681608 -2.9510169452
H 3.3819699352 -1.4323871181 -2.0165291295
H 4.7039287487 -2.9763905317 1.2776328352
H 4.8326986957 -1.3662244872 2.0475803702
H 3.7290907539 -3.0622281332 3.546463469
H 2.6878697041 -1.6793055025 3.1861095223
H 2.4215150694 -3.2214516036 2.3591036424
H 0.7351274561 1.4070352692 1.9127631384
H -0.9314176756 0.7267432731 1.8877327901
H -4.3704789547 0.357184036 1.0380496259
H -4.4993386015 2.0402568265 1.6275981512
H -6.3452572132 1.5167796759 0.0335841986
H -5.2704407634 2.7526329042 -0.6433240048
H -5.1600521682 1.0864813444 -1.2108367784
H -2.0590325317 -1.5984018509 -1.8328495244
H -1.4010214375 -2.4006288226 -0.370493919
H -3.7465174639 -2.6705408487 0.4830709376
H -4.362668014 -1.9158702085 -0.9975317284
H -3.531107965 -3.4743725987 -1.0795899414
*
