! pbe def2-sv(p) def2/J RI DEFGRID1 loosescf d4 GCP(DFT/SV(P)) printgap
%output
    printlevel normal
end
* xyz 0 1
C 3.3290691532 0.0352530947 -2.621963288
C 1.9173690671 0.4141988231 -2.2314767432
O 1.3727075872 -0.4873948401 -1.2480219901
P 1.9601188098 -0.5976536006 0.2151037819
S 2.6487179864 1.0401088667 1.0527673574
O 3.009803081 -1.7768323405 0.0157988667
C 3.8401401317 -2.2562911868 1.0921427172
C 5.2076800243 -1.6022714474 1.0496995845
S 0.427838041 -1.5940843741 1.2606521318
C -0.3281442366 -0.2097576839 2.1797164663
S -2.0741346755 0.0148292471 1.7823311986
P -1.8301139789 0.7302392648 -0.2065812361
S -0.4964053026 2.1442945853 -0.4263602083
O -3.3148206343 1.1300212475 -0.5986426562
C -3.9548341048 2.2823323243 -0.0104473133
C -5.2084256026 2.5747473526 -0.8091902258
O -1.5416306045 -0.5144696553 -1.1221502229
C -2.371690668 -1.7050399523 -1.1541770457
C -3.3674361267 -1.6330399993 -2.2923201239
H 3.6633941005 0.6805975985 -3.4282671322
H 3.9924587961 0.1625939194 -1.7671442168
H 3.36329132 -1.0021484351 -2.9443917892
H 1.221032732 0.3336804411 -3.0676182261
H 1.8804443493 1.4315314526 -1.8270895899
H 3.3434887439 -2.0614236276 2.0470457461
H 3.9078191829 -3.3335496514 0.9302259327
H 5.8282519336 -2.0201652454 1.835610321
H 5.6778155111 -1.7801155649 0.0866156821
H 5.1149385425 -0.5294444864 1.2048439035
H 0.2288769984 0.7052283684 1.9572194252
H -0.2868017535 -0.4467247545 3.2396130196
H -4.1884044322 2.0474372711 1.0313310784
H -3.2523024646 3.1215179674 -0.0395004796
H -5.7066336097 3.4390675587 -0.3827367113
H -4.9520426653 2.7836893829 -1.8439734253
H -5.8788945412 1.7210434955 -0.7754689467
H -1.6615333154 -2.5234385701 -1.2887323905
H -2.8765164743 -1.8113999016 -0.1898346017
H -3.929530677 -2.56105826 -2.3280072773
H -4.0518682694 -0.8027349307 -2.1410217056
H -2.8474247551 -1.4914684604 -3.2357748641
*
