! r2scan-3c def2/J RI DEFGRID2 scfconv6 printgap
%output
    printlevel normal
end
* xyz 0 1
C 4.5025357003 -1.3567349674 -1.9301579533
C 3.4807778309 -2.3164842515 -1.3567711159
O 2.8482855568 -1.8161153073 -0.1633233538
P 2.1510994635 -0.4009844418 -0.0067860907
S 3.2948523892 1.176683796 0.2306146542
O 1.1943499812 -0.7243566905 1.2157191505
C 1.3691342475 -0.1503102797 2.5226248833
C 2.4564982008 -0.8785331945 3.2843609248
S 0.8027860844 -0.3515942064 -1.6483786766
C 0.4031942886 1.4093488668 -1.5354301004
S -0.3627502116 1.8573504227 0.050625886
P -2.0558661291 0.6123951957 -0.1297212516
S -2.818679633 0.3427672652 -1.916822646
O -2.9361686654 1.420306352 0.9079452422
C -4.3077535994 1.0350316229 1.1600354613
C -5.0002594474 2.1991508691 1.8375071271
O -1.7509390526 -0.7367529828 0.6625760654
C -1.6371000275 -2.0427780413 0.0716358386
C -2.7692957429 -2.9194728095 0.5692531824
H 5.2355946309 -1.0852546291 -1.1741967467
H 5.0075023881 -1.8267765004 -2.7679377203
H 4.0121452156 -0.4480766694 -2.2767872311
H 3.9475941388 -3.2464671226 -1.027253491
H 2.6987168671 -2.5325519797 -2.0900465588
H 1.6114073997 0.9124920782 2.4149197368
H 0.3917257922 -0.2554258252 2.9965182345
H 2.5410600188 -0.4619366458 4.282936132
H 2.225959493 -1.9383112847 3.3491461663
H 3.4064202324 -0.7567957981 2.7649468707
H -0.2838211404 1.6238065279 -2.3531194916
H 1.315453366 2.0002151581 -1.613289291
H -4.7810450737 0.7883676769 0.2030850155
H -4.3006370112 0.1467343624 1.7970157344
H -4.9883623944 3.0692521288 1.1872553592
H -6.0279119441 1.9261029767 2.0541594474
H -4.4882335948 2.4468922265 2.7627150368
H -1.6688665313 -1.948143312 -1.0189106945
H -0.6613940755 -2.428434525 0.3758703338
H -2.6404579236 -3.922206341 0.1751508034
H -2.7668496406 -2.9561732765 1.6550130839
H -3.7233624055 -2.5234542217 0.2278770409
*
