! pbe def2-sv(p) def2/J RI DEFGRID1 loosescf d4 GCP(DFT/SV(P)) printgap
%output
    printlevel normal
end
* xyz 0 1
C 3.0745548962 -1.8472173939 -2.0312418421
C 1.6692404927 -1.2883841049 -2.0016100637
O 1.2543938327 -0.9828257377 -0.6555650961
P 1.9219313862 0.1857296948 0.1754843928
S 2.741552295 1.6808655016 -0.7844475906
O 2.9038051067 -0.6832860802 1.08985624
C 3.7763127607 -0.0688922879 2.0560521297
C 5.1633529317 0.1336900231 1.4779612289
S 0.3910132668 0.7118913991 1.5389163193
C -0.2742512056 -0.9454193729 1.8458105778
S -1.4789667002 -1.5308477415 0.5953028977
P -2.0587102268 0.2506156273 -0.4188528346
S -0.8644468744 1.1339998473 -1.7010002736
O -2.5644797386 1.2457448807 0.6900887789
C -3.5344227526 0.8994414616 1.715430916
C -3.1526801816 1.628146274 2.9877074619
O -3.4238931997 -0.2392593582 -1.0785854553
C -3.4958192902 -0.842285899 -2.3816905971
C -2.8256985194 -2.2002759066 -2.4176176111
H 3.326291135 -2.132760356 -3.0475990852
H 3.77636833 -1.0862683366 -1.6913659047
H 3.1470707012 -2.7133369002 -1.3788223039
H 0.9320434358 -2.0177782435 -2.3416408634
H 1.5882366376 -0.3780679221 -2.6047814733
H 3.3442873644 0.8847704397 2.3771604398
H 3.7951787407 -0.7635423959 2.8980265269
H 5.5651232398 -0.8141300587 1.1313846513
H 5.121629877 0.8267677359 0.6404351457
H 5.8141855961 0.5430288807 2.2437030134
H -0.777623237 -0.9014516377 2.8087683847
H 0.5397298492 -1.6679811835 1.8589001223
H -4.5119526609 1.2150838325 1.3471243072
H -3.5351554173 -0.1855580194 1.8518833931
H -3.850124199 1.361238294 3.7749948667
H -2.1426279304 1.3600387622 3.2884036917
H -3.1848658306 2.7015453589 2.8252697895
H -4.566728984 -0.9130945818 -2.5764877601
H -3.0292767698 -0.16248993 -3.1018901242
H -1.7544024959 -2.0835590318 -2.2571595728
H -3.2286582275 -2.843499675 -1.6394596774
H -2.9888778921 -2.6570366202 -3.3883369008
*
