! pbe def2-sv(p) def2/J RI DEFGRID1 loosescf d4 GCP(DFT/SV(P)) printgap
%output
    printlevel normal
end
* xyz 0 1
C 3.7576700658 1.549941628 -1.7400195684
C 2.4148861425 0.8811646528 -1.9478949255
O 2.2482965374 -0.2568652721 -1.0843779268
P 2.0345881247 -0.104092374 0.4945735992
S 1.0239782458 1.4699266668 1.0654413879
O 3.4635994859 -0.0781728845 1.1771881237
C 4.4873361152 -1.070076289 0.9143843242
C 4.5839301847 -2.0522841798 2.0640820299
S 1.3252292271 -2.0443838906 0.8903970065
C -0.2520143568 -2.0252861791 0.0007046037
S -1.6362240211 -1.3385897486 0.9784891677
P -2.1630468125 0.3292154154 -0.2021999005
S -1.1123619921 0.6648834331 -1.8269004534
O -2.2111153524 1.4296637076 0.9283755217
C -2.1710359206 2.8457056199 0.6663101115
C -3.3403693771 3.3109574305 -0.1752264961
O -3.7204582094 0.1468330386 -0.4902603833
C -4.2288432242 -0.5468076765 -1.6405384553
C -3.9106120039 -2.0282119196 -1.6075808999
H 4.5637713197 0.8376389129 -1.8958176911
H 3.8606639571 2.3699946256 -2.4436090314
H 3.8190232295 1.944432967 -0.7258882089
H 2.3107008445 0.4678775771 -2.9521765062
H 1.5967660831 1.5840534595 -1.7618551342
H 4.2601004137 -1.5787512059 -0.0255364343
H 5.407760296 -0.4923433302 0.8116626273
H 3.6643571289 -2.6266989107 2.1525252287
H 5.4118259345 -2.7301494176 1.8820929482
H 4.754506159 -1.5179739408 2.9945561158
H -0.4810334072 -3.0680056075 -0.2015578222
H -0.1445864522 -1.4489137415 -0.9219448996
H -2.1822651425 3.288774572 1.6631372304
H -1.215858709 3.0761032648 0.1832668025
H -3.2774256224 2.8772275784 -1.1729011416
H -4.2770085326 3.0054358334 0.2841273851
H -3.3116928972 4.3928490038 -0.2588399877
H -5.3035959475 -0.3648199472 -1.6007071138
H -3.8052660058 -0.083774311 -2.5377825604
H -2.8385739994 -2.1798603374 -1.7273435189
H -4.2244207828 -2.4609620614 -0.6610312449
H -4.4290898217 -2.5241319319 -2.4218488225
*
