! r2scan-3c def2/J RI DEFGRID2 scfconv6 printgap
%output
    printlevel normal
end
* xyz 0 1
C 5.6375991588 1.4770218727 -0.5911326493
C 4.343399876 0.8844320642 -1.109934327
O 3.4787714608 0.6564826857 0.0224200688
P 1.9321559666 0.3440121497 -0.1627114767
S 0.9397084609 1.6533808233 -1.2252686686
O 1.4434457343 0.2459962129 1.3267698345
C 2.0977324353 -0.6010729252 2.3117105746
C 1.0578976012 -1.0383491012 3.3213831458
S 1.980452291 -1.6320951868 -0.955044222
C 0.2320555259 -1.793124213 -1.3714357745
S -0.8354515278 -1.912410399 0.1038842022
P -2.0136204163 -0.1958681519 -0.1336652777
S -2.3335529708 0.4125696014 -1.9756018499
O -1.3571232164 0.8098140032 0.8916654615
C -1.8025401429 2.1820884689 0.9795600898
C -0.9454387684 2.8735641056 2.0173633235
O -3.3506505565 -0.5679596962 0.6457416702
C -4.3953500615 -1.3589096996 0.0445098547
C -5.6975102462 -1.0336885256 0.7482873512
H 5.4419640271 2.4213894686 -0.0911598252
H 6.1016379512 0.7934559295 0.1136258486
H 6.310395773 1.64593399 -1.4253272556
H 4.5121890368 -0.0742696043 -1.6073365886
H 3.8364686893 1.5636213049 -1.8030725334
H 2.5435974967 -1.4582704869 1.7988857248
H 2.885701553 -0.0042379745 2.7736475752
H 1.5380322959 -1.6409398642 4.0855908317
H 0.5977938395 -0.1691216192 3.7823918294
H 0.283185654 -1.626155707 2.8351254928
H 0.1380012153 -2.7211080032 -1.9293275394
H -0.0934849904 -0.9373426425 -1.9698278004
H -1.6868830146 2.6424577438 -0.0078598863
H -2.8595289278 2.1851528186 1.2575477992
H -1.2421740288 3.9148173733 2.0888611151
H -1.0678987432 2.3907027556 2.9822870425
H 0.0997808243 2.8161986126 1.7229076212
H -4.4439369427 -1.1178649488 -1.0229154138
H -4.1292089016 -2.4120305653 0.1642914629
H -6.4873896776 -1.6527905765 0.336032328
H -5.6022056607 -1.2303784471 1.8121895768
H -5.9514875084 0.0127796441 0.6036791484
*
