! wb97x-v def2-tzvp def2/J RIJCOSX DEFGRID2 scfconv7 GCP(DFT/TZ) printgap
%output
    printlevel normal
end
%cpcm
    smd true
    smdsolvent "water"
end
* xyz 0 1
C 1.9120831987338136 -3.4970834117028126e-05 0.7150282388144631
N 1.1270116499798257 2.7502789287737895e-05 -0.5267932485085844
C 0.2681545469250955 1.1993779905248603 -0.6195662964671481
C -0.91905676891748 1.1992733900161796 0.335624827362061
N -1.7457044881929795 1.793739361664789e-05 0.09566085049970603
C -0.9190854660594041 -1.1992827011179383 0.3354997893909303
C 0.26814487586488533 -1.1993090653082559 -0.6196723894540255
H 1.3197283485519689 -0.0001777278608447196 1.6427477207315975
H 2.556492312306433 0.8853086320011005 0.7340628552197664
H 2.5566402221861586 -0.8852753104803143 0.733885544107555
H 0.886166012689621 2.08628532620995 -0.44074146086843463
H -0.11071467106163424 1.2635939707560697 -1.6483958665973557
H -0.5631890758452027 1.251214291614124 1.3790640448174605
H -1.520732654270256 2.0965931627057657 0.1537513155153519
H -2.4908394273281655 -1.1459213723233916e-05 0.7855614879413851
H -0.5632429575299127 -1.2513552344214771 1.378940848322469
H -1.5207786459258295 -2.096567763201735 0.1535066995272822
H 0.886146165837781 -2.086234242119171 -0.4408996588504875
H -0.11070411219186407 -1.2634490393892912 -1.648513732667507
*
