! wb97x-v def2-tzvp def2/J RIJCOSX DEFGRID2 scfconv7 GCP(DFT/TZ) printgap
%output
    printlevel normal
end
%cpcm
    smd true
    smdsolvent "water"
end
* xyz 0 1
C -1.7556570569955903 -0.6646445994956687 0.0019305708376371894
C -0.4634325032527439 0.08470360034285937 -0.02666748233547381
O -0.37021818648207216 1.299993370625014 -0.09166841729288767
O 0.6085070061341605 -0.7301279942299875 0.03172590737126259
C 1.9025319419235405 -0.07272611889409315 0.015263369707995121
H -1.60861963783871 -1.743684263365932 0.03717319634385171
H -2.335478803189828 -0.39508213844191326 -0.8854980374334637
H -2.3253452664798826 -0.33935013989531204 0.8777296457606208
H 2.025460687872867 0.49425736795390657 -0.9104339793236957
H 2.634932874883948 -0.8773297510890652 0.06867947770441953
H 1.9997645709309129 0.5897966475530017 0.8785410389229757
*
