! pbe def2-sv(p) def2/J RI DEFGRID1 loosescf d4 GCP(DFT/SV(P)) printgap
%output
    printlevel normal
end
* xyz 0 1
C 1.9908674949 -3.5324215431 -2.372344277
C 3.2139221656 -2.9078569652 -1.7199712395
O 2.9105299405 -1.5870487138 -1.234351601
C 2.3649758152 -1.4671537573 -0.0410685786
O 2.169739281 -2.3810208081 0.7274448991
C 2.0074998436 -0.0214349351 0.2603620994
C 1.1088781907 0.5340471933 -0.8479235271
H 1.6807602555 0.6581815967 -1.7696834424
C 0.4924158949 1.8509345595 -0.4234975587
O -0.7100365776 1.9786573907 -0.2771806867
O 1.3785181868 2.7795262605 -0.2295210741
C 0.9384405296 4.0542729194 0.2958256381
C 0.8564360702 4.001407034 1.8122575444
S -0.2573707053 -0.6039664818 -1.2729607928
P -1.5978674568 -0.2467791469 0.3185119332
S -1.1045454066 0.3441208427 2.1342560664
O -2.9666896246 0.3628943785 -0.2375597633
C -3.4484489433 1.6892052486 -0.0219150034
O -2.0181766999 -1.7994593026 0.3124187011
C -2.9967591577 -2.3121552829 1.2187416041
H 2.2560736755 -4.4999198487 -2.7851660969
H 1.2011831104 -3.6643986689 -1.6356420374
H 1.6181856076 -2.8886961541 -3.1641969907
H 4.0168190001 -2.7551573087 -2.4409903355
H 3.561274878 -3.5186602616 -0.881851473
H 2.9188192073 0.5755742214 0.3135207927
H 1.5003091797 0.00334601 1.227327337
H 1.6980855083 4.7589992097 -0.0407380207
H -0.0338144851 4.2961240353 -0.1398621139
H 1.8276904339 3.762146264 2.2354778846
H 0.5301768913 4.965113505 2.1883773772
H 0.1436262809 3.2411431771 2.1282135813
H -3.1218301662 2.3311870693 -0.8369968498
H -3.0716301634 2.0757157546 0.9259639691
H -4.5332066947 1.6108293809 0.000455645
H -3.9934139241 -1.9981152983 0.9097775193
H -2.7930334821 -1.9573954588 2.2316363019
H -2.9030941202 -3.3942281933 1.1726594664
*
