! pbe def2-sv(p) def2/J RI DEFGRID1 loosescf d4 GCP(DFT/SV(P)) printgap
%output
    printlevel normal
end
* xyz 0 1
C 5.3894432649 -1.8223963102 -1.002623136
C 4.5700764775 -0.541692541 -0.9893910832
O 3.1647577047 -0.826174109 -1.1264744452
C 2.4695576883 -1.093032657 -0.038363111
O 2.9226692739 -1.1136358268 1.0826581217
C 1.0133829858 -1.376111193 -0.3706453746
C 0.3979100956 -0.1919720811 -1.121529156
H 0.9585345918 -0.0067427464 -2.0409834272
C 0.4123219238 1.04887531 -0.2557486032
O -0.6045177358 1.5880698329 0.1401286289
O 1.6198850734 1.4437839799 0.024157491
C 1.7895324399 2.5467105786 0.945710463
C 3.2162339013 2.5102136262 1.4547903352
S -1.3191041692 -0.5114943343 -1.6410555966
P -2.4473117058 -0.0994694736 0.1112606453
S -1.7349815034 -0.5070050559 1.9044188255
O -3.2831883327 1.2332394784 -0.0943141873
C -3.1865422056 2.4121870828 0.7058446582
O -3.6997316277 -1.0444989549 -0.2305751261
C -3.5933784078 -2.4689700363 -0.1861019511
H 5.1406142955 -2.4340076964 -0.1383542031
H 5.1865894014 -2.3884231368 -1.907497748
H 6.4448609279 -1.5737194 -0.9650533602
H 4.8050258519 0.0889701136 -1.8467245006
H 4.7247904168 0.0063874671 -0.0563179869
H 0.4772128463 -1.5683857352 0.5611655948
H 0.9622313842 -2.2581421047 -1.0097447447
H 1.5725343683 3.4716190061 0.4044228759
H 1.0636783242 2.4289334652 1.755674937
H 3.3556586023 3.301797484 2.1831760212
H 3.4137099067 1.5513211143 1.9280201526
H 3.9114425447 2.6513569987 0.6327113849
H -4.2059783541 2.7658987566 0.8452009924
H -2.5858085545 3.152680721 0.180906075
H -2.7285351256 2.184097784 1.6696931094
H -3.0279898105 -2.8315746488 -1.0449039077
H -4.6147722136 -2.8396166888 -0.2182986103
H -3.1068082036 -2.7802870078 0.7408096243
*
