! r2scan-3c def2/J RI DEFGRID2 scfconv6 printgap
%output
    printlevel normal
end
* xyz 0 1
C 1.1248870707 0.1579318551 2.919502659
C 2.6207151693 0.0569272799 2.7020286801
O 3.0147907893 0.5671107374 1.4165813372
P 2.6647675373 -0.1823551842 0.0581645586
S 2.7756691842 -2.1424652195 0.1425813015
O 3.6413838703 0.5280819242 -0.9651413584
C 4.9867984767 0.0613452401 -1.1991814867
C 5.8743063003 0.2346300372 0.0157090525
S 0.8575900091 0.6764670601 -0.6463263424
C -0.1028862119 -0.8404392447 -0.9370567617
S -1.4065560709 -1.0931159192 0.2872549582
P -2.7723627791 0.3109832245 -0.558608554
S -2.9165148342 0.284250646 -2.5081910322
O -2.3081948442 1.7190306759 -0.0285013654
C -2.175247381 2.0319785029 1.3824755093
C -1.1881818024 3.1735829824 1.5100421619
O -4.117214288 0.0754214544 0.2561021592
C -5.1083832664 -0.8950101044 -0.129762695
C -4.586339581 -2.3149820392 -0.055909231
H 0.6011721687 -0.5072305035 2.2325662679
H 0.8885026321 -0.1375481383 3.936615862
H 0.789995954 1.1783408916 2.7528963226
H 2.9507529944 -0.9842382304 2.7780806683
H 3.1731949524 0.67551981 3.4105387827
H 4.9394420341 -0.9912294759 -1.4964735102
H 5.3276417976 0.6679737861 -2.0392789589
H 5.5454889314 -0.4276426413 0.8152416651
H 6.8970899195 -0.0145588541 -0.2495847259
H 5.8308611012 1.2616946749 0.3683663635
H 0.5638221733 -1.7033500647 -0.8793183764
H -0.5644431627 -0.7586799542 -1.92175812
H -3.1638448889 2.3087199229 1.7529414925
H -1.8299786577 1.1369659623 1.9086285691
H -1.5500418747 4.0402024726 0.964559617
H -1.0722118882 3.4306498496 2.5581767928
H -0.2261315801 2.8841558374 1.0935710465
H -5.9215975286 -0.7269629319 0.5777759546
H -5.4423468383 -0.6602816791 -1.1449121712
H -5.40510979 -3.0063986337 -0.2272923388
H -3.8272408768 -2.4735806421 -0.8205019005
H -4.1474870157 -2.5081827389 0.9197677305
*
