  22
        -58.14255691
 C          4.3761474413        1.3923334069       -0.0005096817
 C          3.0993866023        1.9317868092        0.0003955233
 C          1.9932749082        1.1001102325        0.0013599324
 C          2.1617780587       -0.2833641580        0.0012668559
 C          3.4316644621       -0.8314770525        0.0002250055
 C          4.5305725325        0.0170300039       -0.0004589085
 Cl         6.1183543270       -0.6727050591       -0.0021931210
 O          1.0861836586       -1.1488214125        0.0023645950
 C         -0.1447605216       -0.5687670570        0.0015197588
 C         -0.3146355655        0.8200549497        0.0014266323
 C         -1.5986579987        1.3559054298        0.0003736268
 C         -2.7159237839        0.5201938094       -0.0003079451
 C         -2.5466457992       -0.8592713459       -0.0000758348
 C         -1.2601425018       -1.3996553940        0.0007369404
 Cl        -1.0233225926       -3.0996101743        0.0008105327
 Cl        -3.9107350564       -1.8987853291       -0.0011051635
 Cl        -4.2910259854        1.1983165633       -0.0017540362
 Cl        -1.7806320911        3.0621087385        0.0000662797
 O          0.7382213400        1.6789778123        0.0024561194
 H          5.2381761980        2.0372540745       -0.0012533336
 H          2.9440483287        2.9973000584        0.0005770127
 H          3.5415691792       -1.9025108466        0.0000983102
