! r2scan-3c def2/J RI DEFGRID2 scfconv6 printgap
%output
    printlevel normal
end
* xyz 0 1
C 4.2316373138 -0.0234093054 -2.151574302
C 4.398903967 -0.3737539876 -0.6863286544
O 3.1379249097 -0.6170982031 -0.0419255521
P 2.1089198085 0.5647511936 0.2654102244
S 2.9257871108 2.2743687246 0.7574765096
O 1.1639297401 -0.0970123443 1.3489231145
C 1.4239524345 0.0059598187 2.7617690165
C 2.6231447207 -0.8213164151 3.1740765799
S 0.7814227693 0.5898749018 -1.3814701491
C 0.4350828914 -1.1836434804 -1.5405262337
S -0.6345114513 -1.8686296453 -0.236086742
P -2.165703021 -0.4408448927 -0.3498038394
S -2.6716329761 0.2087097986 -2.1344016924
O -1.6796336257 0.6450291221 0.6950064499
C -2.1767882772 2.0014040206 0.6957590742
C -1.1414657354 2.886048132 1.358600246
O -3.3598485302 -1.1157696996 0.4557688115
C -4.2398481237 -2.085240594 -0.1505686616
C -5.5522358438 -2.0682230266 0.6069835774
H 3.6752558119 0.908757651 -2.2487327062
H 5.2102865267 0.1044543878 -2.6030483621
H 3.6953046656 -0.8087320937 -2.6779969409
H 4.9063283634 0.4391683466 -0.157184143
H 4.949626176 -1.3059117577 -0.5530965319
H 1.5767227475 1.0616890772 3.0091004199
H 0.5024870989 -0.3552508444 3.2212854051
H 2.71397675 -0.8079436218 4.2557272815
H 2.5061615907 -1.8464133195 2.8321458633
H 3.5289241857 -0.4028239452 2.7376920592
H 1.3612263683 -1.7516192307 -1.5026074447
H -0.0622761733 -1.2903192638 -2.5033708078
H -2.3606809679 2.3065807185 -0.3404740281
H -3.1200566616 2.0117985833 1.2469475747
H -1.5022008123 3.9093142952 1.3719965409
H -0.9617587971 2.5532883685 2.3771511576
H -0.2023548086 2.8515129119 0.8088523331
H -4.3813358841 -1.8168464686 -1.2029648466
H -3.7557752948 -3.06311744 -0.0897564317
H -5.3772818083 -2.2886064236 1.6560677233
H -6.0195519258 -1.0908400972 0.5250938447
H -6.2147045814 -2.8176688958 0.1865663698
*
