! pbe def2-sv(p) def2/J RI DEFGRID1 loosescf d4 GCP(DFT/SV(P)) printgap
%output
    printlevel normal
end
* xyz 0 1
C 4.047438769 -1.4725136657 -2.2721181106
C 4.624441758 -1.166340852 -0.9056638156
O 3.6097478948 -1.0794791648 0.1122871061
P 2.5116381258 0.068397512 0.1218636586
S 3.1258687444 1.8450388364 -0.4282773309
O 2.0290914248 0.0672471688 1.6252462494
C 2.0449581921 -1.0662268081 2.5260763324
C 1.1742791366 -2.2052841097 2.0407269023
S 0.9034002067 -0.7070513452 -1.0526348104
C 0.0744785553 0.8740529409 -1.3076260367
S -0.7002724519 1.5176408651 0.2037718804
P -2.4148945561 0.2949522289 0.1025874249
S -3.2368613833 0.0473322546 -1.6646772062
O -3.4085592094 0.8656804074 1.2060611764
C -4.3964587987 1.8668063247 0.9058275128
C -3.7677026295 3.2106648879 0.5992872436
O -1.8687557046 -1.0047515645 0.8246565624
C -2.5773898762 -2.2678754993 0.7553406163
C -1.9875755751 -3.1496612894 -0.3270101735
H 4.8589465954 -1.6528367519 -2.9697789728
H 3.4066769287 -2.3494268258 -2.2281231631
H 3.4609771756 -0.6263820715 -2.6267067524
H 5.1742037508 -0.2204579524 -0.9247166833
H 5.2746122987 -1.9683827605 -0.5532624288
H 3.080830696 -1.3885500284 2.6491286829
H 1.6718174053 -0.6438680965 3.4605329487
H 0.1639229774 -1.8494258814 1.85502121
H 1.5789977814 -2.6202877298 1.1193623069
H 1.1483166035 -2.9811980017 2.7995245749
H -0.6908328645 0.7206577597 -2.069374462
H 0.8073143574 1.6180643392 -1.6216407462
H -4.9934915138 1.5195445115 0.0562630091
H -5.0136284539 1.9048225022 1.8043731209
H -4.5476004197 3.9575609395 0.4910897342
H -3.0934185559 3.5045452418 1.3999888023
H -3.2015463376 3.1539912955 -0.3298527894
H -2.4541754251 -2.70887171 1.7457050559
H -3.6373273181 -2.0747110615 0.5699268289
H -2.4806545449 -4.1160973369 -0.3068789279
H -2.1359958423 -2.6951360732 -1.3040863426
H -0.9216232835 -3.2820344959 -0.1664418801
*
