! pbe def2-sv(p) def2/J RI DEFGRID1 loosescf d4 GCP(DFT/SV(P)) printgap
%output
    printlevel normal
end
* xyz 0 1
C 4.6303717652 -1.6025201641 -0.7050936392
C 4.6693883852 -0.1489929327 -0.27895029
O 3.5016414983 0.2318291574 0.4680485556
P 2.0570190012 0.3376253892 -0.1903980268
S 2.0527844764 1.0328931599 -2.0266206047
O 1.2796089953 1.1567120539 0.9209082216
C 1.2343621342 2.5956645773 0.9350680413
C 2.5930042894 3.2081784886 1.1985087808
S 1.2596461944 -1.5800589859 0.1354551077
C 0.0447531392 -1.6941345493 -1.2266727127
S -1.6275160552 -2.0091779112 -0.6300670295
P -2.0211691468 -0.0808105325 0.177251131
S -1.4107205261 1.4089631294 -0.940965579
O -1.3927850889 0.0017645825 1.6156375806
C -1.3332524164 -1.0509749309 2.6133054535
C -2.6769172477 -1.6825620157 2.9023016491
O -3.5779193788 -0.136369121 0.4775079041
C -4.5785105022 -0.2280627054 -0.5560775709
C -5.0666156241 1.1470617143 -0.9680799326
H 3.8460288368 -1.7514285692 -1.445939216
H 5.584926496 -1.8718546005 -1.1455977819
H 4.432257745 -2.2426755784 0.1508631493
H 4.7468965747 0.5042484663 -1.1541323768
H 5.4936308533 0.0478944948 0.4078529728
H 0.8277975708 2.93733518 -0.0231128732
H 0.5201953743 2.822584926 1.7284969458
H 3.0262305176 2.7850310448 2.1010971525
H 3.2582388204 3.009823164 0.3589342131
H 2.4833091411 4.2818609493 1.3150503232
H 0.3118254371 -2.5455456716 -1.8468891452
H 0.0698364659 -0.7622657157 -1.7987785197
H -0.6127298837 -1.7994167951 2.270697843
H -0.9334340861 -0.5338524715 3.486947424
H -2.5688678317 -2.3602922546 3.7436967004
H -3.4087542013 -0.9174806466 3.1477519047
H -3.0271752763 -2.2448337665 2.0393680397
H -4.1664871889 -0.7713208648 -1.4104007581
H -5.3818419905 -0.8135338205 -0.1050605509
H -5.8602844605 1.0410856802 -1.700514865
H -5.4439255159 1.6846615081 -0.1027493585
H -4.2529436439 1.7208267448 -1.4066492162
*
