! pbe def2-sv(p) def2/J RI DEFGRID1 loosescf d4 GCP(DFT/SV(P)) printgap
%output
    printlevel normal
end
* xyz 0 1
C 2.9363115728 -1.2262177425 -2.9731096221
C 3.2219700269 -0.3219313107 -1.791766209
O 2.6593847985 -0.9286660903 -0.6060495914
P 1.9482884922 -0.130125685 0.5526356392
S 1.2368996369 1.6551754964 0.1004011103
O 3.1073048887 -0.0342144203 1.6381148971
C 3.0551223012 0.8192787667 2.7969829173
C 4.4690413561 1.2527036378 3.1303258842
S 0.75365353 -1.6413747195 1.3971249223
C -0.2718350222 -2.1826867465 -0.0251026913
S -0.4360803875 -0.9716976434 -1.3561850563
P -1.9295606824 0.2752990597 -0.5237026421
S -2.2644373826 1.9842558603 -1.414012697
O -1.4717841676 0.2872985294 0.9937209341
C -1.8448973891 1.3473020891 1.8943188619
C -3.3339396686 1.3582639881 2.1632729143
O -3.208290628 -0.6762152829 -0.4159927209
C -4.1904658705 -0.7591251117 -1.4594405388
C -3.6526024171 -1.4548173919 -2.6940398723
H 1.8633599217 -1.3124665844 -3.1275902626
H 3.3932308986 -0.8022336602 -3.8612948375
H 3.3491807452 -2.2138766047 -2.7908599271
H 2.7760727602 0.6697183762 -1.9271860398
H 4.2945079891 -0.2135046659 -1.6177548846
H 2.4181317239 1.6813738415 2.5696549827
H 2.611448165 0.2444776167 3.6137808383
H 4.4524272587 1.8598158939 4.0294982725
H 5.0936989119 0.3794729868 3.2943913411
H 4.8839422508 1.8350859251 2.3121639689
H -1.2543914439 -2.4255705378 0.374372425
H 0.2058914048 -3.0519743922 -0.4707513424
H -1.2683161999 1.1337424895 2.7963295881
H -1.5131706141 2.2981479488 1.4637683929
H -3.6579093301 0.3833331894 2.5178356701
H -3.5566703023 2.1111638357 2.9126446521
H -3.8711782197 1.6007537637 1.2469519761
H -5.0116680131 -1.3158946534 -1.0060382507
H -4.5173713277 0.25611766 -1.7061414358
H -2.8510439315 -0.8605725028 -3.1327078118
H -3.2631907376 -2.4373344132 -2.4407158213
H -4.4505072928 -1.5601188743 -3.4220097508
*
