! pbe def2-sv(p) def2/J RI DEFGRID1 loosescf d4 GCP(DFT/SV(P)) printgap
%output
    printlevel normal
end
* xyz 0 1
C 5.8705540409 0.0133038371 -0.2709738705
C 4.5424737337 -0.6089804474 -0.6529140982
O 3.5040052416 0.0494953221 0.0995752519
P 2.0032100593 0.1412641678 -0.4239962019
S 1.8719861761 0.64448883 -2.3191868541
O 1.3850361628 1.1115373625 0.6581925463
C 1.5838529444 2.5414555989 0.5826510433
C 0.7942417191 3.170715798 1.7097498631
S 1.1955121268 -1.7146312229 0.1219174641
C -0.1042667694 -1.8969507374 -1.1499361437
S -1.7661943919 -1.9979945913 -0.4546609532
P -1.9404915346 0.0106311195 0.2294405935
S -1.3912769891 1.411855352 -1.0203967403
O -1.1384695536 0.0716676888 1.5837284987
C -1.2821164529 -0.8675110394 2.6780251937
C -2.3297438128 -0.4014737723 3.6672815361
O -3.4533421723 0.098824364 0.7102398898
C -4.5330956848 0.4480296872 -0.1740805683
C -4.800809915 -0.6248190484 -1.2094724429
H 5.8848594493 1.0648481338 -0.5443355153
H 6.0263560653 -0.0753755202 0.8002772685
H 6.6678003375 -0.5026257683 -0.7956965584
H 4.512873443 -1.672218893 -0.4024369611
H 4.3330682634 -0.4827872883 -1.7206438287
H 2.6538159424 2.745995846 0.6713169462
H 1.2297411147 2.8845464577 -0.3957478148
H 1.1483327735 2.7966325005 2.665723368
H 0.9134651094 4.2484828903 1.6706187826
H -0.2583700965 2.9206947481 1.6000248866
H 0.0640915435 -2.8387160057 -1.6656967554
H -0.0340953148 -1.0517369494 -1.8406205972
H -1.5325035851 -1.851341788 2.2709157076
H -0.2883022528 -0.9006105633 3.1290289607
H -3.3099015039 -0.383138268 3.1989098989
H -2.3473483035 -1.0870064691 4.5088366351
H -2.0914301357 0.597068477 4.0233104061
H -5.3836741103 0.5816348672 0.495856551
H -4.2881750091 1.3986325791 -0.6579992288
H -4.9113550979 -1.5943571256 -0.73054873
H -5.711139611 -0.3815856483 -1.7479913873
H -3.9764102344 -0.6751232345 -1.9187283014
*
