! pbe def2-sv(p) def2/J RI DEFGRID1 loosescf d4 GCP(DFT/SV(P)) printgap
%output
    printlevel normal
end
* xyz 0 1
C 4.0215604874 -0.961288426 -2.2514355062
C 4.6087605037 -0.0780037957 -1.1709519295
O 3.598763849 0.6056128734 -0.3867451225
P 2.5179742098 -0.0803134432 0.5392067906
S 2.0213156274 1.0923509335 2.0266573611
O 3.2018330051 -1.4552903013 0.9428714285
C 2.7800890325 -2.2016961486 2.0988921877
C 1.348815465 -2.6813301917 1.9742728967
S 0.946986995 -0.6581938034 -0.7925470384
C 0.4256900358 1.0169182844 -1.2334506816
S -0.7222648096 1.766512877 -0.0371359859
P -2.2744801976 0.3647173586 -0.3162573325
S -2.5617703223 -0.2930586127 -2.1437084661
O -3.5426441515 1.0372411642 0.3654189837
C -4.459202185 1.8722513272 -0.362861559
C -3.8337123524 3.1923348053 -0.765343433
O -1.8675881189 -0.7183733575 0.7654468506
C -2.3162544744 -2.0880361997 0.6788659789
C -3.8120836842 -2.205439305 0.8814691185
H 3.3545442992 -0.3917067849 -2.893693066
H 4.8314290069 -1.3653799832 -2.8510134418
H 3.4645427124 -1.7837286308 -1.8084136305
H 5.1884569048 0.7440014404 -1.5940854327
H 5.2307808736 -0.6598362668 -0.4887869918
H 3.4844113808 -3.0334981505 2.1431281418
H 2.8942516406 -1.5644406636 2.9811401638
H 1.1084476412 -3.320060261 2.8182215976
H 0.674988943 -1.8241400402 1.97589323
H 1.2119232032 -3.2342441039 1.0478670163
H -0.0721993116 0.939529645 -2.1996685217
H 1.2928723595 1.6727828028 -1.2826151127
H -4.7983694826 1.3230746899 -1.2473449609
H -5.2903973289 2.0145360426 0.3290808722
H -3.3976925978 3.6833986453 0.1013027896
H -3.0490978546 3.0240361256 -1.5019464533
H -4.5940149759 3.833400254 -1.1998602949
H -2.022372555 -2.4836374038 -0.2986768663
H -1.7597725285 -2.5961755152 1.4672582548
H -4.1032392168 -1.7279047392 1.8134836307
H -4.3364095974 -1.7205660878 0.0586681684
H -4.0902381869 -3.2543060641 0.9076898703
*
