! pbe def2-sv(p) def2/J RI DEFGRID1 loosescf d4 GCP(DFT/SV(P)) printgap
%output
    printlevel normal
end
* xyz 0 1
C 4.1630609827 0.5075304242 -2.3879366418
C 2.8435477069 -0.2113611932 -2.1983838362
O 2.0230001405 0.4676607275 -1.2150486935
P 1.9707102429 0.106429642 0.3163402574
S 0.8285314175 1.3419589921 1.312037588
O 3.4993891378 0.1329614921 0.754310298
C 3.9091465826 0.2206368138 2.1300445809
C 3.5493195917 -1.0240010039 2.9149281537
S 1.5341139732 -1.9796340921 0.3702003007
C -0.0833853501 -1.9978822047 -0.438885986
S -1.4733208937 -1.5514321527 0.6657891728
P -2.1601739486 0.1851157138 -0.2956116515
S -1.1571754789 0.8453591519 -1.8528061817
O -2.3135388419 1.1263548147 0.9606959229
C -2.6734913794 2.5185980396 0.823895991
C -2.3790027838 3.200173487 2.1431278874
O -3.700970804 -0.070643848 -0.6349149053
C -4.1454946287 -0.6348842559 -1.8788577833
C -3.7149177617 -2.0792073648 -2.0366188369
H 4.7489504505 0.4678879122 -1.4737012778
H 4.7145251503 0.0274389997 -3.1902812384
H 3.98531672 1.5479195325 -2.6467964787
H 2.9993431072 -1.2453482966 -1.8785303326
H 2.2409860893 -0.1862365955 -3.1089428608
H 4.9892223506 0.3621611793 2.071175949
H 3.441024101 1.1051853092 2.5733150648
H 2.4676976996 -1.0992713693 3.0189729974
H 3.9150290725 -1.9121569934 2.4057443873
H 3.9927995771 -0.9649529744 3.9036761471
H -0.2354114071 -3.0250878477 -0.7590596059
H -0.0796280367 -1.3049516364 -1.2855964478
H -2.0797925341 2.9524186308 0.0112880655
H -3.7342313407 2.5730534945 0.5643416536
H -2.6285544316 4.2532449472 2.0664750109
H -2.9623398239 2.7415028799 2.9357579659
H -1.3224977342 3.0930747854 2.3786723454
H -5.2311754108 -0.5390089658 -1.8355226466
H -3.7484021937 -0.0230034831 -2.6953141519
H -4.0071333934 -2.6576824887 -1.1638950159
H -4.1819382888 -2.4982219593 -2.9220340007
H -2.632748642 -2.1308656282 -2.1497574268
*
