! pbe def2-sv(p) def2/J RI DEFGRID1 loosescf d4 GCP(DFT/SV(P)) printgap
%output
    printlevel normal
end
* xyz 0 1
C 5.1579373079 1.1762805988 -0.818084721
C 4.7546544967 -0.2848971178 -0.8061853406
O 3.5612399603 -0.4995572962 -0.0309241999
P 2.1164606618 -0.0589824382 -0.5628829247
S 1.9124248611 -0.0637016865 -2.5028219375
O 1.8305610658 1.3601307888 0.0906709448
C 2.0371529684 1.6004197156 1.5027330049
C 1.1967588769 2.7951887208 1.9011873118
S 1.034605796 -1.4767657188 0.5712917905
C -0.2034531944 -2.009763292 -0.6634530745
S -1.8853849902 -1.9358936069 -0.0193868029
P -1.9934747204 0.1756158439 0.242700999
S -1.1717562166 1.2652713483 -1.1651138866
O -1.3558548136 0.4857348062 1.6508158788
C -1.4629115302 -0.3187432535 2.8535222762
C -2.8946509964 -0.615029393 3.2404286558
O -3.5363477418 0.4632430643 0.4841591684
C -4.4585692737 0.7171072485 -0.5882938151
C -4.6751889223 -0.5015039139 -1.4622977799
H 6.0628181105 1.2956179678 -1.4055982643
H 4.3633602708 1.7720233662 -1.2686490438
H 5.3379585797 1.5313936969 0.1934327476
H 5.5034776478 -0.9109158657 -0.3192718695
H 4.5750342157 -0.6412314498 -1.8252984542
H 1.7470587534 0.7018529326 2.057809717
H 3.1021981719 1.78817381 1.6571874508
H 0.1448453161 2.5847172344 1.7231983792
H 1.351582482 3.0072608411 2.9540412843
H 1.4794705909 3.6611749812 1.3093132863
H -0.0150715093 -3.0510987878 -0.911634967
H -0.1084272837 -1.3701062729 -1.5454329528
H -0.8979225942 -1.2420119311 2.6943355232
H -0.9616979944 0.2942760075 3.6041683743
H -3.3631162923 -1.2542438976 2.4951976911
H -2.9008152424 -1.1255865987 4.1984891445
H -3.462553796 0.3080891364 3.3198363388
H -5.3752166877 1.0135660792 -0.0764817431
H -4.0766644909 1.553115372 -1.1828216463
H -3.7682301956 -0.7245049579 -2.0222470235
H -4.9337741554 -1.3641503179 -0.8537316966
H -5.4782839394 -0.3005118359 -2.164111383
*
