! r2scan-3c def2/J RI DEFGRID2 scfconv6 printgap
%output
    printlevel normal
end
%cpcm
    smd true
    smdsolvent "water"
end
* xyz 0 1
C 4.6894708035 0.1369371487 -1.872194487
C 4.4725716214 1.0511788637 -0.6840223385
O 3.5734517493 0.4852045854 0.2867574175
P 2.026833943 0.2622367954 -0.0012999205
S 1.1474526742 1.7024944298 -0.9903324424
O 1.418999992 0.089146902 1.4426689757
C 1.8204607463 -0.9254036624 2.3969857544
C 2.9286083178 -0.4215043176 3.2975566091
S 1.9617060378 -1.6671880654 -0.89251122
C 0.2070557361 -1.6859655817 -1.3150928785
S -0.8744206633 -1.8393339256 0.1490680431
P -2.0168333732 -0.0782355395 -0.0060515381
S -2.2499997824 0.6402754973 -1.8192143133
O -1.3584787254 0.8661912341 1.0771029472
C -1.5805895504 2.2893559942 1.0952270645
C -3.0200405804 2.6292121284 1.4140872925
O -3.3461953828 -0.5066670058 0.7567090329
C -4.3172128973 -1.3973208321 0.1724218563
C -5.4341203398 -0.6178491696 -0.4945150476
H 4.9648621304 -0.8600856561 -1.5378351391
H 3.7783356337 0.0699669845 -2.464413212
H 5.4818288054 0.5416058594 -2.4937255142
H 4.0672460855 2.0147701119 -1.0078117276
H 5.3947900659 1.2069428667 -0.1224446849
H 0.9077441818 -1.1344240499 2.9589505328
H 2.1290605823 -1.8223824687 1.8523386112
H 3.8280185306 -0.2295895744 2.7189739537
H 2.6226678464 0.4988998571 3.787506736
H 3.1397512457 -1.1750561342 4.0499194483
H 0.0557521518 -2.564487212 -1.9368154432
H -0.0611978308 -0.7717100194 -1.8527373643
H -0.8912854531 2.6481188578 1.86121969
H -1.285586097 2.6992875747 0.1231091616
H -3.3223513678 2.1481172431 2.3406315069
H -3.1217184153 3.7056498962 1.5102462206
H -3.6655136943 2.2821108412 0.6079019259
H -3.8184468493 -2.0566143461 -0.5438649499
H -4.6892018841 -1.9873302452 1.0120029984
H -5.9018380794 0.0524808874 0.2211937983
H -5.0405308487 -0.0314668613 -1.322064676
H -6.176323698 -1.311897977 -0.8751674507
*
