! pbe def2-sv(p) def2/J RI DEFGRID1 loosescf d4 GCP(DFT/SV(P)) printgap
%output
    printlevel normal
end
* xyz 0 1
C 4.3651618494 -1.5990134721 -1.1715641194
C 4.6223106011 -0.1174986429 -0.9823964173
O 3.6617376369 0.5009443999 -0.1121032616
P 2.1151792343 0.620949088 -0.4788517601
S 1.794559642 0.9983244816 -2.371412631
O 1.671277344 1.7981589473 0.4702483845
C 1.3821123558 1.6982032898 1.8818535448
C 2.5477735273 1.15909884 2.681855583
S 1.2613096467 -1.1662189005 0.3162750023
C 0.2190495947 -1.6783219712 -1.0846409907
S -1.4502929935 -2.1348984222 -0.5662863071
P -2.0501742664 -0.2912081538 0.2858362743
S -1.3891744198 1.3278954802 -0.6241509491
O -1.592861853 -0.4814293046 1.7917627512
C -2.376393358 -0.1026453859 2.9476029357
C -2.5617837059 1.3980902275 3.0398177395
O -3.6290300464 -0.3992420516 0.400815654
C -4.5074578729 0.0155781562 -0.6597816051
C -4.4252500159 -0.90202932 -1.8619725167
H 4.2715284224 -2.0951306333 -0.2089639428
H 3.4460477677 -1.7431081921 -1.7379889583
H 5.1894875028 -2.0366688969 -1.7252868018
H 4.5972355893 0.4004159956 -1.9464170854
H 5.5765266194 0.0662371155 -0.4866309079
H 1.1371503902 2.7257925801 2.1563847
H 0.4988985022 1.0635248935 2.0026083457
H 2.3028825192 1.2003049436 3.7387124333
H 2.746341741 0.1255235202 2.4026969645
H 3.4380753697 1.752695602 2.4920027189
H 0.6432515434 -2.5733009529 -1.5332968245
H 0.184056851 -0.8556570283 -1.8052064678
H -3.3395016551 -0.6126401718 2.8927190544
H -1.7943260594 -0.4907884086 3.7846495869
H -1.6006179576 1.9009517778 3.1131497136
H -3.0740603607 1.7647431826 2.1507951949
H -3.1577791809 1.6345318033 3.9156857818
H -5.4972557394 -0.0081641827 -0.2017813435
H -4.2496798027 1.0418745029 -0.9409915058
H -4.5538941461 -1.9374060824 -1.5570984047
H -5.201435281 -0.6340516632 -2.5716017306
H -3.4553738436 -0.7971255874 -2.3461736921
*
