! pbe def2-sv(p) def2/J RI DEFGRID1 loosescf d4 GCP(DFT/SV(P)) printgap
%output
    printlevel normal
end
* xyz 0 1
C 4.015252912 -1.1388604548 1.6672966383
C 2.8285192865 -1.9233094919 1.1327518928
O 2.4439551581 -1.4477602056 -0.1707673383
C 1.543888719 -0.5040041751 -0.2642783195
O 1.0181751473 0.0661576756 0.6780607048
C 1.2385243709 -0.1397002529 -1.6997223954
C 0.1822247875 0.9540613436 -1.7359594318
H 0.1630202553 1.4295900235 -2.7207391011
C 0.4432448623 2.0371506277 -0.69478849
O -0.4178316675 2.5231976806 0.0015322133
O 1.6949104722 2.4444793572 -0.7534648204
C 2.1202579059 3.4849045287 0.1510622086
C 2.7991909793 2.8841341599 1.3705391139
S -1.5318093745 0.358164459 -1.5555607925
P -1.6569230449 -0.9010709334 0.1511720213
S -0.6190724416 -2.5630822472 0.1729704022
O -1.5938213912 -0.1046495603 1.5114344714
C -2.459656558 0.9999879438 1.8384174638
O -3.2319908608 -1.19141684 0.0712755475
C -3.7871845393 -2.0322420318 -0.9453696119
H 4.8353847766 -1.175716433 0.9559247637
H 3.7340321731 -0.1022303865 1.8371591292
H 4.3353223001 -1.5745526712 2.6078420108
H 1.9652245379 -1.844333021 1.8003512579
H 3.0777832047 -2.9726955783 0.9740447976
H 0.9101097479 -1.0320042255 -2.2353690362
H 2.1621747822 0.2163070031 -2.1597147808
H 2.811341517 4.0944438785 -0.4321232048
H 1.2435792782 4.0705823461 0.44075242
H 3.0593282904 3.6742566144 2.0669317401
H 2.1220234875 2.1855817476 1.859945812
H 3.7006756142 2.35358182 1.0753897613
H -2.3630604281 1.1209627804 2.9141919317
H -3.4863448996 0.767775771 1.5633880228
H -2.1125357336 1.8934455179 1.3201899903
H -3.1782945899 -2.9305480204 -1.0599709784
H -3.8341324098 -1.4896041544 -1.8885866575
H -4.7843991826 -2.291199097 -0.598599711
*
