! pbe def2-sv(p) def2/J RI DEFGRID1 loosescf d4 GCP(DFT/SV(P)) printgap
%output
    printlevel normal
end
* xyz 0 1
C 5.4545958786 -0.4331617683 -0.8549073985
C 4.7650296805 -0.1563140738 0.4665172178
O 3.4504383915 -0.7446314906 0.5235837136
P 2.171241523 -0.1300493093 -0.192873232
S 2.051430703 -0.2681973085 -2.1466356077
O 2.141085169 1.3502132549 0.3931084048
C 1.8830440403 2.541265649 -0.3669090382
C 3.1725600701 3.3098587058 -0.5748301863
S 0.8061652686 -1.2639497511 0.9384912025
C -0.2573617732 -1.9474551083 -0.3869760139
S -1.9995167585 -1.8988176065 0.0665312808
P -2.174568502 0.2138700347 0.2688678121
S -1.1479706817 1.2852634209 -1.009739128
O -1.7730416035 0.5718946937 1.7492576259
C -2.0163449855 -0.2287878483 2.9324123634
C -3.4748613368 -0.5910226312 3.1056212096
O -3.7377514302 0.4891866552 0.2539974926
C -4.4849718081 0.7014801052 -0.9563490608
C -4.541723623 -0.5380817056 -1.8257046502
H 5.5006916716 -1.5037430109 -1.0359955439
H 4.9083013386 0.029206729 -1.6750909716
H 6.4616278986 -0.0290957465 -0.8258390401
H 4.6786624502 0.9178871913 0.6506524056
H 5.2939212139 -0.629130192 1.296162883
H 1.4315563969 2.267896629 -1.3260012616
H 1.1572096507 3.1112956927 0.2158312534
H 3.859449637 2.7273510302 -1.1857871698
H 2.9489872077 4.2404622631 -1.086130945
H 3.6386797202 3.5286204551 0.3822078333
H -0.0073040102 -2.9949150456 -0.5348085672
H -0.0864223926 -1.3682829525 -1.2991184995
H -1.38898752 -1.1229576405 2.8685648713
H -1.65852735 0.4114526331 3.7399787351
H -3.6004169656 -1.1020654105 4.0551348889
H -4.0891763866 0.3054213224 3.0939870596
H -3.7976743438 -1.2504567493 2.3025129518
H -5.4752235159 0.9892090026 -0.6004574487
H -4.0297210535 1.5336929869 -1.5026262118
H -4.8786479994 -1.3934318298 -1.2459356117
H -5.2280995124 -0.3660575569 -2.6486221174
H -3.5551117532 -0.7552642668 -2.2320408952
*
