! pbe def2-sv(p) def2/J RI DEFGRID1 loosescf d4 GCP(DFT/SV(P)) printgap
%output
    printlevel normal
end
* xyz 0 1
C 2.3354287721 -2.3971809155 2.4498444874
C 1.4600986501 -1.8105375881 1.3601046555
O 1.8921124578 -0.4653318963 1.0929566751
P 2.3296522726 0.0848695999 -0.336770338
S 2.9369430192 -1.2594102032 -1.6182648935
O 3.4588359805 1.1227831978 0.0247300266
C 3.482825626 1.9839229534 1.1905358226
C 2.6277959707 3.2192751482 0.9984845452
S 0.7099421011 1.3039616268 -1.0181193266
C -0.089250871 0.0898006141 -2.087574313
S -0.842049731 -1.2866463006 -1.1717386978
P -2.1688590416 -0.1070779104 -0.0312863317
S -2.9579816124 1.4800193099 -0.877700193
O -1.2620241151 0.1475189541 1.2421729863
C -1.5777286512 1.1782863873 2.2079690566
C -0.4266523175 1.2519522524 3.1889431551
O -3.2333172273 -1.1302052124 0.5609726801
C -4.4690427359 -1.431066526 -0.1105486097
C -4.2435953402 -2.216652742 -1.3860897221
H 2.2918526598 -1.778997676 3.3420656408
H 1.9839959954 -3.3960707169 2.6867402433
H 3.3660956223 -2.4541923435 2.1077668189
H 0.4143671316 -1.7495734837 1.6703758918
H 1.5316059266 -2.4009321103 0.4405361857
H 3.1604344712 1.4056972454 2.0582813934
H 4.5379639972 2.2437174656 1.2892880776
H 2.7397012645 3.8662207161 1.8630968208
H 2.9373909273 3.756019616 0.1058469849
H 1.5787650549 2.9500930406 0.8889559969
H 0.6479014908 -0.3542846669 -2.7563802492
H -0.8599773812 0.6268997584 -2.6387785148
H -1.713528414 2.1214022482 1.6684966387
H -2.5151653527 0.9132112204 2.7034443774
H 0.5031504168 1.4225726016 2.653096685
H -0.5984304681 2.0700403461 3.8805663292
H -0.3464142063 0.3208464619 3.7424560888
H -5.0341058852 -2.0062805344 0.623987052
H -4.9835152113 -0.4886954734 -0.3244610452
H -3.6417472575 -3.0995062488 -1.1856045395
H -5.2014903628 -2.5176251489 -1.7979461434
H -3.7240921185 -1.5979569675 -2.1169143638
*
