! pbe def2-sv(p) def2/J RI DEFGRID1 loosescf d4 GCP(DFT/SV(P)) printgap
%output
    printlevel normal
end
* xyz 0 1
C 5.3347393464 -2.2045998171 -0.4388790446
C 4.6144796552 -0.975791153 0.0928333799
O 3.1877139566 -1.1780193345 0.1124043053
C 2.5112919239 -0.9500097803 -0.9935957271
O 2.9936393829 -0.5555395749 -2.031634206
C 1.0320499512 -1.2458421411 -0.8118253919
C 0.2166385108 -0.0895088383 -1.3891192442
H 0.5871239237 0.1369255027 -2.3945092251
C 0.3423099126 1.1495015123 -0.5282307821
O -0.6256144721 1.7496398213 -0.1004163868
O 1.5848872154 1.4710156569 -0.3090715054
C 1.8715388798 2.5536341795 0.6067027009
C 2.0062404551 2.0147905639 2.0209895683
S -1.549261953 -0.4828248305 -1.5916692108
P -2.3421706108 -0.0601207722 0.3363037093
S -1.2382504376 -0.3240464472 1.9449791137
O -3.2872308516 1.2104818445 0.2637588532
C -3.0942793351 2.4409441442 0.9630759945
O -3.5685041881 -1.0922455399 0.3008181127
C -3.3541247071 -2.5044148176 0.3622582626
H 5.0652922721 -2.3751706152 -1.4785688137
H 6.4064209796 -2.0480628378 -0.3741120481
H 5.0641811355 -3.0792974119 0.1461283276
H 4.8317420941 -0.1013938457 -0.5269924572
H 4.8767599454 -0.7831286882 1.1332189419
H 0.8171573506 -1.4020352064 0.2462130485
H 0.7945509371 -2.1539144415 -1.3686456811
H 2.8095998333 2.974147807 0.2445100956
H 1.068291623 3.2913890039 0.5395620859
H 2.2528478991 2.8288241259 2.694048913
H 1.0717526027 1.5583145603 2.3433680161
H 2.7880433529 1.2616031965 2.0626526704
H -4.0832844289 2.7607055679 1.2844165356
H -2.6491557941 3.1705213728 0.2890986622
H -2.4434089405 2.2927149577 1.8263348052
H -2.6745592367 -2.7458403626 1.1822840353
H -2.9441138981 -2.8645013366 -0.5815824493
H -4.3332717878 -2.9404988492 0.5431172287
*
