! pbe def2-sv(p) def2/J RI DEFGRID1 loosescf d4 GCP(DFT/SV(P)) printgap
%output
    printlevel normal
end
* xyz 0 1
C 3.1590512796 1.8360582206 -1.3395338901
C 2.9645206523 2.0265726669 0.1524266297
O 3.1075346867 0.7814706648 0.8605195719
P 1.8678880709 -0.145995049 1.2184392838
S 0.3523686987 0.7476522667 2.0693939063
O 2.4921885654 -1.2181483094 2.1918207115
C 3.6461744626 -2.0337540971 1.8710926876
C 4.9235725214 -1.3870153799 2.3656341738
S 1.4757781464 -1.2132739059 -0.5891601874
C -0.1447592714 -1.8931715641 -0.1205318374
S -1.3482365503 -1.8093203799 -1.4770797825
P -2.0977812124 0.1386535551 -1.1725987515
S -3.5243410958 0.7258626126 -2.376530805
O -0.7384685541 0.9570254597 -1.245007537
C -0.7413520018 2.3735919331 -1.5221285305
C -1.349576138 3.1729313832 -0.3893246196
O -2.4539801187 0.2174248397 0.3799579042
C -3.7750372802 -0.051568117 0.8711131334
C -4.1176833777 -1.52639339 0.7966838925
H 3.1324266966 2.8048403351 -1.8289360522
H 4.1197724819 1.3669340632 -1.5323543204
H 2.3769515128 1.2030341524 -1.7536926153
H 1.9814804247 2.4511953106 0.3807378681
H 3.740705205 2.6701443681 0.5709911361
H 3.4571622793 -2.9790909805 2.382850364
H 3.6750736443 -2.1945206299 0.789648442
H 4.852350623 -1.1898363819 3.4318440077
H 5.7552948236 -2.0597226078 2.1807094533
H 5.098816832 -0.4487285159 1.8469853218
H -0.5212882522 -1.3278371117 0.7347865968
H -0.0317227588 -2.9494137005 0.1080295387
H 0.3120818114 2.6145416032 -1.6695910928
H -1.2947414004 2.5386649596 -2.4521436701
H -1.1932260896 4.231709022 -0.5693061768
H -2.4192741393 2.9769186842 -0.3299597457
H -0.8945549744 2.8918832205 0.5583468141
H -3.7510927071 0.3087666052 1.9007476835
H -4.4883923519 0.5368956106 0.2847103805
H -3.3804329671 -2.11645996 1.3354652518
H -5.0964762324 -1.6890080401 1.2363198608
H -4.1391063632 -1.8502065745 -0.2438006096
*
