! pbe def2-sv(p) def2/J RI DEFGRID1 loosescf d4 GCP(DFT/SV(P)) printgap
%output
    printlevel normal
end
* xyz 0 1
C 3.4766628481 -2.3267497446 1.9298091535
C 3.5459909516 -0.8230981857 1.7571650831
O 3.6048136051 -0.4674684582 0.3511466812
P 2.3475655043 0.0050740067 -0.4857171823
S 2.8461317125 0.5334022174 -2.2982853266
O 1.6253147272 1.1341700477 0.404500214
C 1.7942820054 2.5349196303 0.132034872
C 3.1600857999 3.0186014078 0.574337001
S 0.9347976383 -1.5490211572 -0.2867191852
C -0.1462576598 -1.0485585847 -1.650133549
S -0.8161757325 0.6379583235 -1.4968354554
P -2.3747046696 0.2590738955 -0.1183257044
S -3.3050838052 1.8444759558 0.5549018061
O -1.751910468 -0.6816532496 1.0025982611
C -1.0949828449 -0.159832263 2.1725245048
C -0.8099818772 -1.3298914452 3.091605553
O -3.2208624589 -0.7767137767 -0.9671988086
C -4.6124537244 -1.0314461225 -0.6779163132
C -4.7931627136 -1.7203476204 0.6578444484
H 3.5154998694 -2.5632188705 2.988446938
H 2.5533279233 -2.7183859774 1.5085556442
H 4.316459269 -2.7968490467 1.4259540506
H 4.4704179972 -0.4204839527 2.1747589202
H 2.6861241193 -0.3284715572 2.2149188602
H 1.6494600697 2.7009582622 -0.9404882282
H 0.9873719121 3.0194066958 0.685254797
H 3.2439252339 4.0834108708 0.3817559788
H 3.3044459481 2.831402771 1.6352098712
H 3.9325415236 2.494801266 0.0113461104
H -0.9628658881 -1.7642035203 -1.6889837186
H 0.4298273419 -1.0466187217 -2.5747577104
H -0.1709974115 0.3379376259 1.8643488474
H -1.7534729038 0.5808009123 2.6378245449
H -0.2969151034 -0.9714104529 3.977713143
H -1.7390930837 -1.8096527017 3.3843470972
H -0.1852832997 -2.0545094762 2.5764194253
H -5.1485836465 -0.0775621764 -0.6970913921
H -4.939232025 -1.6582351558 -1.5086444516
H -5.837804251 -1.9860102739 0.7864378314
H -4.1816019964 -2.6174558974 0.7051907957
H -4.4982759975 -1.0469374134 1.4614448353
*
