! r2scan-3c def2/J RI DEFGRID2 scfconv6 printgap
%output
    printlevel normal
end
%cpcm
    smd true
    smdsolvent "water"
end
* xyz 0 1
C 0.317303116 -2.6997345887 1.1514336501
C 1.6055568716 -2.1969003407 1.7695480667
O 2.0064358759 -0.9263819694 1.232894148
P 2.4197464078 -0.7416067345 -0.3000542999
S 3.3044783799 -2.3000687745 -1.090838001
O 3.2856687919 0.5867000723 -0.2221780412
C 4.6358786561 0.5594953503 0.2967724443
C 5.3875566274 1.7356356806 -0.2911730124
S 0.7466047424 0.0450062888 -1.3061688222
C 0.3644853806 1.4286590389 -0.1835949443
S -0.6569038337 0.9617195408 1.2358346605
P -2.4380841992 0.6846988557 0.150817795
S -2.8023098417 1.9300241222 -1.3264421116
O -3.5912889003 0.5995631556 1.243680878
C -4.3174086272 1.7573663469 1.6931686973
C -3.4358021885 2.7169920898 2.4658493856
O -2.2773042746 -0.8388785256 -0.2474171276
C -3.0427205483 -1.4577203237 -1.3043316043
C -2.1732523316 -2.4991318458 -1.9785857137
H 0.4629342134 -2.8539747514 0.081724845
H 0.0429870047 -3.6447317277 1.6093212955
H -0.4879920594 -1.9836634071 1.2964842332
H 2.4136505667 -2.9136604893 1.5921055124
H 1.4964950865 -2.0080797321 2.838127413
H 4.5776725651 0.6206092892 1.3859754993
H 5.0983244251 -0.3922599474 0.0135350649
H 4.8996659806 2.666810851 -0.0181955625
H 6.4026080929 1.735649057 0.0925396532
H 5.4141789816 1.6569278727 -1.3745539479
H -0.1794899039 2.1558163056 -0.7873707438
H 1.2891032384 1.8452737764 0.2030325654
H -4.7515578918 2.2524330117 0.8188104054
H -5.1096715539 1.3429872884 2.3178888107
H -4.0477889684 3.5095981768 2.8843206197
H -2.9208904864 2.1947686204 3.2682269462
H -2.6943072094 3.1575934004 1.8005870036
H -3.9280049991 -1.907401307 -0.8494353348
H -3.3533841524 -0.6824919414 -2.0133002449
H -2.7369263267 -2.9698366747 -2.7774488745
H -1.2845939474 -2.0308398164 -2.3956994936
H -1.8688078119 -3.2541242046 -1.2596172224
*
