! pbe def2-sv(p) def2/J RI DEFGRID1 loosescf d4 GCP(DFT/SV(P)) printgap
%output
    printlevel normal
end
* xyz 0 1
C 3.8041898421 -1.6932830917 -2.6289318556
C 3.9811592884 -0.2213377809 -2.3186581808
O 3.486459458 0.1314243865 -1.0127187545
P 1.9466175064 0.0558610476 -0.6237852788
S 0.6981844908 0.6202251621 -2.0158398733
O 1.8947534493 0.9648525129 0.6635257313
C 2.8161772798 0.8412763176 1.7795889073
C 2.1015973989 0.2791338923 2.9919981036
S 1.6893128784 -1.940688185 0.0487555791
C -0.1180704622 -1.9542762994 0.0286760922
S -0.8723973317 -1.1486277204 1.4851314541
P -1.7943553743 0.5930023965 0.7394982234
S -0.9345746315 2.3509868928 0.6799412736
O -3.031175778 0.758133018 1.724860093
C -3.8691226406 -0.2846839141 2.2774658662
C -4.5946435541 -1.0860454143 1.2164383982
O -2.3306114851 0.0322603267 -0.6569369236
C -2.8113261808 0.9079195378 -1.6941408087
C -2.8457462197 0.1219987472 -2.9878829825
H 2.7471599202 -1.9259091483 -2.7449183695
H 4.3181893797 -1.9238793212 -3.5565471645
H 4.2139635252 -2.3025689065 -1.8273464084
H 3.4620937201 0.394053677 -3.0597871204
H 5.0345646024 0.0594246689 -2.2764516422
H 3.6575953639 0.2134679829 1.479939899
H 3.1611336366 1.8602854171 1.961859658
H 1.2089166092 0.8663565155 3.1977258446
H 1.8093304194 -0.7557519585 2.82881105
H 2.7664590716 0.3303603812 3.8481832952
H -0.4160395467 -2.9984238098 0.0649463984
H -0.4749528517 -1.4618664111 -0.8761249192
H -3.2467056539 -0.9316771161 2.8997529682
H -4.5671037396 0.2701589631 2.9070037546
H -5.1648371926 -0.4256531276 0.5674611947
H -3.8867494247 -1.6498563148 0.6134729753
H -5.2740211861 -1.7785880209 1.7036031544
H -3.805457664 1.2610481672 -1.4066620838
H -2.1379360071 1.7686680131 -1.7672649003
H -1.8355364504 -0.162007824 -3.2720052617
H -3.4517989696 -0.7709401778 -2.8664718138
H -3.2698275307 0.7455439053 -3.7677049855
*
