! pbe def2-sv(p) def2/J RI DEFGRID1 loosescf d4 GCP(DFT/SV(P)) printgap
%output
    printlevel normal
end
* xyz 0 1
C 2.8801895193 -1.4873512505 -2.9222687094
C 3.2266452553 -0.3936145274 -1.9320080676
O 2.8656925355 -0.8289565144 -0.6062039726
P 2.1174918356 0.0372704979 0.4862257354
S 1.4930001985 1.7971568345 -0.1544654218
O 3.2593653444 0.1394598403 1.5876816052
C 3.0461559117 0.2818342399 3.0038410699
C 2.0747837401 1.3935154021 3.3435267486
S 0.8202755706 -1.3863627747 1.3595543863
C -0.0634728349 -2.0253123111 -0.1026452659
S -0.3359451569 -0.8243136307 -1.4347564877
P -1.8908543726 0.3147325217 -0.5950240068
S -2.5426119364 1.8450480351 -1.6277984793
O -1.2635461769 0.6234852888 0.8256824717
C -1.9329794574 1.4761317295 1.7789806727
C -2.6174758922 0.6399550531 2.8402569946
O -3.0292262673 -0.7394879589 -0.2081142225
C -4.1023926544 -1.0591086217 -1.1079464405
C -3.6186747213 -1.8412530293 -2.3123678668
H 3.2294523667 -1.1933317064 -3.9065193538
H 3.3636916134 -2.4151687751 -2.6309695729
H 1.8036142474 -1.6380348882 -2.9575193927
H 2.6972014246 0.5387946376 -2.1582527005
H 4.3011196792 -0.1986449938 -1.9145450094
H 2.6868613173 -0.6766473749 3.3896166616
H 4.0435485871 0.4888658582 3.3957058791
H 1.9928797734 1.4885810851 4.4214077521
H 2.4140968373 2.3366300521 2.9204842333
H 1.0928904689 1.1638463664 2.9295634239
H -1.0196604354 -2.3962863339 0.2607035965
H 0.5300280071 -2.8215778 -0.5461836867
H -1.1426857389 2.1015848935 2.201243849
H -2.6420671465 2.1162442905 1.2433955596
H -1.8946561953 -0.0186464005 3.3148129216
H -3.0499088911 1.2993925724 3.585869862
H -3.4037801459 0.0368375444 2.3937544173
H -4.7951811245 -1.6408980116 -0.4985725925
H -4.5752188092 -0.1242682416 -1.4247215841
H -2.9427783301 -1.2246734288 -2.9047914882
H -3.0941707254 -2.7409162557 -2.0014831577
H -4.470293841 -2.1159190088 -2.9263102466
*
