! pbe def2-sv(p) def2/J RI DEFGRID1 loosescf d4 GCP(DFT/SV(P)) printgap
%output
    printlevel normal
end
* xyz 0 1
C 0.843670711 1.4108858505 -0.6209377606
C 1.5875685299 0.1874304906 -0.0649435779
H 2.559328659 0.0954454723 -0.5711039603
C 0.7806714353 -1.1023197498 -0.3336632815
H 1.2171073728 -1.9040323187 0.2739754568
C -0.6796036034 -0.9082504323 0.1180815943
H -1.2883415733 -1.7450046295 -0.2423780443
C -1.2755285441 0.4038617123 -0.4469518723
H -1.3589504954 0.3532341278 -1.5457578302
O -0.4625580783 1.5097267245 -0.0914419818
O -2.5453430608 0.6215743745 0.0363358356
O -0.7983779757 -0.9021378134 1.518945148
O 0.8927213639 -1.5410695653 -1.660629273
O 1.7543125586 0.272465876 1.3324392574
H 0.8057241698 1.3574482309 -1.7175915375
H 1.3396287101 2.3365025058 -0.3256485749
H -2.5416270257 0.4524669028 0.9959867974
H -0.0679125012 -0.3709166546 1.8848203868
H 0.4877603944 -0.9076793077 -2.268735902
H 2.272285388 1.0586202536 1.5580136729
*
