! pbe def2-sv(p) def2/J RI DEFGRID1 loosescf d4 GCP(DFT/SV(P)) printgap
%output
    printlevel normal
end
* xyz 0 1
C 5.514848062 -0.7928976102 -0.7690901559
C 4.2309794604 -1.5697820411 -0.9752247832
O 3.2006738966 -0.7298468501 -1.5538954154
P 2.1210554102 0.0531184952 -0.7143384511
S 0.9409802119 1.043070589 -1.9197309996
O 3.0085253555 0.8929567045 0.294746082
C 2.4909560774 1.9116541921 1.1707883185
C 3.6620404801 2.7476235716 1.6437179298
S 1.2116142943 -1.4316824369 0.5151266577
C -0.1592868764 -1.8786261293 -0.6012560094
S -1.7649293834 -1.9132309751 0.2281255279
P -2.126181759 0.1823393166 0.3935820646
S -0.8617476489 1.2792785716 1.4020386266
O -3.616381729 0.2187348535 0.9451553397
C -3.9187144837 0.2058365448 2.3524477074
C -3.5015050992 -1.0896401496 3.0169532402
O -2.2676964134 0.6830774105 -1.0923928083
C -3.1675135955 0.1191791854 -2.0772699177
C -4.485302511 0.865484633 -2.0975380605
H 6.2846287339 -1.4701376455 -0.4124120065
H 5.8344560198 -0.3474735752 -1.707212135
H 5.365670947 -0.0021919642 -0.0391041857
H 3.8606967182 -1.9839107035 -0.0329447196
H 4.3637547761 -2.369757364 -1.7056938419
H 1.7593490402 2.5129392224 0.6218085495
H 1.9773493154 1.4268371229 2.0051908029
H 3.2943680718 3.5232760896 2.3070929423
H 4.372067587 2.1236973014 2.178701865
H 4.1599935835 3.207070502 0.7943077461
H 0.0072610713 -2.8883907311 -0.9665662828
H -0.1796094608 -1.1518000414 -1.418343911
H -3.4150426354 1.0576655473 2.8195743612
H -4.9996822942 0.3480827195 2.3867814401
H -2.4151626132 -1.1698943371 3.0248639193
H -3.8609424774 -1.0989969648 4.0408896211
H -3.9123110313 -1.9413225135 2.4803611074
H -2.629931744 0.2314176424 -3.021353628
H -3.3184565574 -0.9412003442 -1.855556879
H -4.3092570506 1.9247684031 -2.2646573941
H -5.1006427762 0.4728614074 -2.901065589
H -5.004639457 0.7396427761 -1.1513194857
*
