! pbe def2-sv(p) def2/J RI DEFGRID1 loosescf d4 GCP(DFT/SV(P)) printgap
%output
    printlevel normal
end
* xyz 0 1
C 2.704542178 -1.8888822229 2.5101306877
C 1.745231916 -0.7181771111 2.5394669887
O 1.1860756909 -0.4362280951 1.2372766096
P 2.0337662666 -0.0754096312 -0.0461940531
S 2.8287867214 -1.5432943756 -1.084009321
O 3.0666818008 0.9862341749 0.523629255
C 4.1885289458 1.4606111847 -0.2486314979
C 5.2854930597 1.8663577589 0.7151668455
S 0.6518648752 1.0994076873 -1.146946259
C -0.1658395814 -0.280568717 -1.9826552189
S -0.9781551818 -1.4027453235 -0.8179739221
P -2.3878045117 0.0056927305 -0.0832905781
S -3.0940139156 1.2743028154 -1.4067408769
O -1.7191249926 0.6865123 1.1805721819
C -1.666960025 2.1131246421 1.4042529536
C -0.3969325531 2.4515306216 2.1573704472
O -3.4253531591 -0.9133540163 0.6872366063
C -4.0442570348 -2.1016598806 0.1604650521
C -4.7505123494 -1.8622188113 -1.1581848221
H 2.2155462316 -2.7693384223 2.0990493497
H 3.5653290878 -1.6521760485 1.8855308978
H 3.0450077702 -2.1034309607 3.5183066289
H 2.23913207 0.1856095498 2.9025818226
H 0.8652780348 -0.9349120134 3.147661777
H 4.5173799134 0.6576196919 -0.9169864538
H 3.8476947746 2.3088080995 -0.8469123622
H 5.616863908 1.0077778881 1.2927182654
H 6.1241842156 2.2603846889 0.1507606317
H 4.9193812768 2.6303408105 1.3948267624
H 0.5717803923 -0.8717658612 -2.5250787343
H -0.9060512746 0.155505833 -2.6534065368
H -1.7107433 2.6285577042 0.4387545619
H -2.5515193647 2.377860035 1.9884824267
H -0.3549606201 1.8888021739 3.0853806968
H 0.4775389879 2.2123606732 1.5572235675
H -0.3944505334 3.514130598 2.3775971867
H -3.2736869491 -2.8705366585 0.0535178421
H -4.7480876643 -2.3903364965 0.9432797812
H -4.0276323628 -1.6051544618 -1.9311681596
H -5.2777031098 -2.7637942934 -1.4531363782
H -5.4602365095 -1.0436299154 -1.0644825293
*
