! pbe def2-sv(p) def2/J RI DEFGRID1 loosescf d4 GCP(DFT/SV(P)) printgap
%output
    printlevel normal
end
* xyz 0 1
C 4.1993203948 -3.7146803543 -1.067596309
C 3.1517568588 -2.9387288918 -1.8501138756
O 2.8473083402 -1.6868488457 -1.2055499846
C 1.9408243304 -1.6751083117 -0.2514869551
O 1.3283058044 -2.6452826834 0.1351998304
C 1.7137485783 -0.2682836984 0.2728748255
C 0.8979585558 0.5141548803 -0.7623202152
H 1.502933994 0.6947598797 -1.6541859812
C 0.4096620158 1.8335580623 -0.1958319807
O -0.7724907856 2.1043592155 -0.0976197121
O 1.3845591156 2.6086671008 0.1723484407
C 1.0478078747 3.8764984238 0.7832177646
C 2.3416230925 4.5586183361 1.1774691918
S -0.5614155774 -0.410599554 -1.3586611047
P -1.927741709 -0.1466270294 0.2457427691
S -1.3404959863 0.1865198732 2.0958568671
O -3.1616837818 0.6826908824 -0.3023449631
C -3.5622464679 1.9768546265 0.1538472239
O -2.6827777478 -1.5575232312 0.1282951507
C -2.0696664019 -2.7566151938 0.6075702497
H 4.454633624 -4.6189384725 -1.609948098
H 5.0928359179 -3.110802144 -0.936368967
H 3.8090835673 -3.988590055 -0.0900366674
H 2.2278545883 -3.516616407 -1.9415814079
H 3.5207776367 -2.6534053718 -2.8351499972
H 2.6692269546 0.2339924821 0.4196491174
H 1.171938762 -0.3335139353 1.2184027153
H 0.4800650457 4.4649596112 0.056943113
H 0.4071456168 3.6768379491 1.6473880577
H 2.9665550083 4.7072106954 0.3023209304
H 2.1145649067 5.5211288455 1.6232497725
H 2.8807674187 3.9509826981 1.8974857508
H -3.1823168334 2.160521351 1.1600957048
H -4.6500273924 1.9706638701 0.1527392754
H -3.174902319 2.7322838555 -0.5270461907
H -1.9538583822 -2.7048827677 1.691463443
H -1.0891675702 -2.9092431933 0.1518751801
H -2.7461957425 -3.5612003498 0.3331877715
*
