  8
        -19.45871126
 C         -0.6412086262       -0.9186747736        0.3959082111
 C          0.3992607144       -0.1380384640       -0.3765393491
 Cl         2.0135090068       -0.7985357839       -0.0070383002
 Cl         0.3660959346        1.5926572311        0.0671725166
 Cl        -2.2731981644       -0.3524010841       -0.0712058713
 H         -0.5791083860       -1.9770421265        0.1455457684
 H         -0.5357945121       -0.7691945883        1.4695186318
 H          0.2552686872       -0.1987586556       -1.4564356277
  8
        -19.45829551
 C         -0.8414775402       -0.6150648546       -0.9564829894
 C          0.5188864123        0.0247425726       -0.7968832179
 Cl         1.5095257302       -0.8644473691        0.3956470369
 Cl         0.3713436624        1.7248147743       -0.2655192816
 Cl        -1.7401764449       -0.6125482345        0.5968452029
 H         -1.4383638460       -0.0530099704       -1.6733079256
 H         -0.7346073127       -1.6544597261       -1.2635797315
 H          1.0683214530        0.0251162787       -1.7400821519
