! pbe def2-sv(p) def2/J RI DEFGRID1 loosescf d4 GCP(DFT/SV(P)) printgap
%output
    printlevel normal
end
* xyz 0 1
C 4.4192050828 -0.2690894026 -1.9989461908
C 4.3866576006 0.8266416051 -0.9527405596
O 3.6005711083 0.4644705463 0.1939362848
P 2.0245825004 0.2723082299 0.1335078996
S 1.0960018958 1.581844532 -0.9957239758
O 1.6037673535 0.4141721821 1.6467205001
C 1.8009135225 -0.5731080999 2.6936693074
C 3.2411253042 -1.015697378 2.8251001101
S 1.7699496126 -1.7749782099 -0.3799105417
C 0.0232438103 -1.7134095421 -0.8339261363
S -1.0287993493 -1.1575746669 0.5445155767
P -2.1804920277 0.3650647453 -0.4037078386
S -2.0684153412 0.4066782073 -2.3573828818
O -1.8148848541 1.7410167836 0.275102725
C -2.2801369367 2.1973988658 1.5676377445
C -1.744293053 1.3497299312 2.7018524217
O -3.6473204547 0.1215392489 0.1700020778
C -4.5940447883 -0.7582044749 -0.4615761479
C -4.1518267019 -2.2069067168 -0.4364377831
H 5.1326060555 -0.0040272168 -2.7726954488
H 4.708141231 -1.2153505866 -1.5488999588
H 3.4355934741 -0.3798246955 -2.4531199927
H 3.9769250985 1.7494092033 -1.3760148345
H 5.3775433359 1.0167938628 -0.5378531049
H 1.4574494506 -0.0547844764 3.5902150483
H 1.1428023441 -1.4214472752 2.4842943625
H 3.889942179 -0.1538836765 2.9569487374
H 3.3297578089 -1.6690479285 3.68756397
H 3.5536032265 -1.5587510585 1.9357036914
H -0.2520903553 -2.730976306 -1.0998282424
H -0.1277859515 -1.0302775305 -1.6747911848
H -1.9021724161 3.2201223921 1.6164364662
H -3.3719205171 2.2015924836 1.5573757185
H -2.1493211823 0.340537782 2.6442109649
H -0.6593725998 1.2985617473 2.643846205
H -2.0337728714 1.7971266513 3.6474655426
H -5.5085578799 -0.6057495631 0.113490925
H -4.7400479272 -0.4210863539 -1.4923571296
H -3.2870173105 -2.3399827844 -1.0847983859
H -3.8888917609 -2.5084013248 0.5742272584
H -4.9611975793 -2.8311140828 -0.8011235601
*
