! pbe def2-sv(p) def2/J RI DEFGRID1 loosescf d4 GCP(DFT/SV(P)) printgap
%output
    printlevel normal
end
* xyz 0 1
C 3.1623585835 1.3588158259 -2.3723526693
C 2.02478475 0.3856437917 -2.1546092943
O 1.4068055057 0.5295388786 -0.857244345
P 2.1915800167 0.3664461429 0.5125466517
S 3.3378687841 1.8326498523 1.1236812037
O 2.944924481 -1.0236904233 0.2723816325
C 4.0608196723 -1.4222106347 1.0859099658
C 3.6195730601 -1.8815322721 2.4608884912
S 0.5912506295 -0.0104979825 1.8112433634
C -0.1944337023 -1.468665524 1.015861838
S -1.9867353084 -1.2981937925 0.9508928424
P -2.0611997096 -0.0674208011 -0.7867102704
S -1.1937910264 -0.8665779976 -2.3494945783
O -1.4186766737 1.3224826294 -0.3980129702
C -2.0797290941 2.4028376437 0.3045493105
C -2.5948753542 1.9998790058 1.6700352232
O -3.5959540771 0.2947375173 -0.9662739778
C -4.5087519407 -0.551103076 -1.6898003533
C -4.7430272595 -1.8739230847 -0.9906639545
H 2.8263773658 2.3785171411 -2.198188214
H 3.9815784712 1.1433892519 -1.6875835764
H 3.5184360317 1.2664563547 -3.3935935041
H 2.3638233424 -0.6477615071 -2.2586755405
H 1.2010387856 0.5648743185 -2.848421492
H 4.5285054365 -2.2289174492 0.5197453606
H 4.74875203 -0.5743252131 1.1678309546
H 3.1672582928 -1.0513153279 3.0023561016
H 2.8961828413 -2.6885359378 2.3791086923
H 4.4848380525 -2.2313972865 3.0146156716
H 0.013247346 -2.3420889751 1.6273348844
H 0.1969376075 -1.5777602355 0.0040870301
H -1.2982852279 3.1615901479 0.3798896198
H -2.8922154203 2.7662002153 -0.3278163254
H -1.7897258522 1.5940272941 2.2790465519
H -3.0007316036 2.878736634 2.1616318119
H -3.3802364834 1.2531621282 1.5744879396
H -5.4215531798 0.0437005569 -1.7456998426
H -4.1069798708 -0.7127752723 -2.6948118487
H -5.0307826951 -1.7115426681 0.0447416679
H -5.532272431 -2.4136581606 -1.504028438
H -3.834631819 -2.4734290558 -1.0119394883
*
