! wb97x-v def2-tzvp def2/J RIJCOSX DEFGRID2 scfconv7 GCP(DFT/TZ) printgap
%output
    printlevel normal
end
%cpcm
    smd true
    smdsolvent "water"
end
* xyz 0 1
C 0.7534482235891036 -2.3949928644207716 2.4714578074712
C 1.923948109431282 -1.4801915827691892 2.2194940176428015
O 1.4778769980917348 -0.40968853112046755 1.309054908466727
P 2.341682653829793 0.010147932390607125 0.026220677001036558
S 3.002482479174028 -1.4169050187340617 -1.1228344909244534
O 3.450022303034453 0.9624442570519397 0.7090420093289765
C 4.584667624321567 1.4672107045769767 -0.0783523599860631
C 5.361825161678709 2.403103006480006 0.8098581904199129
S 1.0683368693462314 1.4386244168035605 -0.8768783353099594
C 0.19291037866199273 0.41793568667989245 -2.126219337229196
S -0.8669828427669702 -0.9491729331925927 -1.5125973341166516
P -2.3373386043069337 0.10228188218673881 -0.41290871475785346
S -2.8578356074339566 1.849552461961271 -1.0981854815157248
O -1.7223601243097304 0.039983545685047035 1.0660199008123443
C -2.3650622747514416 0.7330386333704225 2.19687071519695
C -1.2758528782376592 1.3417343811073132 3.042176084046891
O -3.4994506991110805 -1.010893780725757 -0.301738941578344
C -4.467821984974703 -1.190878366630081 -1.3939420906624151
C -5.292569235421399 -2.406004455837479 -1.05977133899424
H -0.090574277509786 -1.8445521726085743 2.897570944249898
H 0.4321134271964655 -2.8786196022715287 1.5441322642041173
H 1.05430261562278 -3.1707073861824555 3.1828258489693537
H 2.763505815463979 -2.015768912236097 1.7658266635603266
H 2.2663984847266634 -0.981687658924457 3.130545401855683
H 5.185073667817191 0.6094021936192412 -0.3947266133621892
H 4.194200133626325 1.9803612622421118 -0.9636999076264245
H 5.733642256869909 1.881424753345552 1.6962161093197587
H 6.219625513800138 2.7890416483543707 0.2508455510172173
H 4.744943495050115 3.249502128619832 1.1243062614324715
H 0.9226093412583866 -0.061119589297384425 -2.785377322979803
H -0.4121665434264442 1.1251945094403901 -2.7007487157417116
H -3.0481811333219024 1.4964271924621317 1.8109263377617626
H -2.9395831713805705 -0.023028382126736465 2.7400123999221715
H -0.7163851532295817 2.0911212687600145 2.473907667766627
H -1.73043356033903 1.8312471585929382 3.909333420443667
H -0.5821587343837834 0.5761880150534697 3.4029261985803916
H -5.077936175040861 -0.28525115003335944 -1.4560870463827993
H -3.9183799141719042 -1.3206076876031276 -2.332513505085717
H -6.0310614309936845 -2.561389706926766 -1.8521349091800752
H -4.665396025009121 -3.299252509514853 -0.9918973765098534
H -5.824712705928925 -2.2688348040191344 -0.11420766008058576
*
