! pbe def2-sv(p) def2/J RI DEFGRID1 loosescf d4 GCP(DFT/SV(P)) printgap
%output
    printlevel normal
end
* xyz 0 1
C 3.8317758861 0.265125674 -2.7773339395
C 4.2250518501 0.9964157263 -1.5089985556
O 3.9191253477 0.234076393 -0.3294751457
P 2.4334278448 -0.024890134 0.1418661888
S 1.2178986098 1.4939763604 -0.161741572
O 2.8224798791 -0.3875151818 1.6325356355
C 1.983908037 -1.0790042052 2.5742198528
C 1.0314926183 -0.1319559956 3.2780349365
S 1.8672534518 -1.8715052997 -0.7510971198
C 0.1289926584 -1.5427795576 -1.1168982224
S -0.9200740874 -1.5304469351 0.3854346383
P -2.0900522632 0.1855055902 0.0071231044
S -2.019936234 0.9701097349 -1.7916119071
O -1.6598848561 1.0846461112 1.2384002305
C -1.8458748712 2.5120130766 1.2545783174
C -3.309843685 2.8966917596 1.2397054222
O -3.55183028 -0.2446576449 0.4709639182
C -4.5098645996 -0.8307644257 -0.4246456347
C -4.0818817099 -2.2007124174 -0.9112142632
H 2.7466345833 0.2019353386 -2.8504987905
H 4.2083104166 0.8093896322 -3.6375354479
H 4.244249012 -0.7405438167 -2.775481382
H 3.7119220368 1.9619284552 -1.4457657212
H 5.3037274936 1.1472486912 -1.44940646
H 1.4342852171 -1.8751058488 2.0603045743
H 2.691621856 -1.5210496848 3.2780901552
H 1.5857046631 0.6791626441 3.7428170739
H 0.3214538504 0.292930677 2.5706906479
H 0.4812907677 -0.6774520167 4.0379025324
H -0.1918859948 -2.3589621283 -1.7587553348
H 0.0203498227 -0.5773434555 -1.61769863
H -1.3511900687 2.8283714351 2.1742186792
H -1.315785977 2.935983393 0.3946858625
H -3.8354363431 2.3979709691 2.0499414599
H -3.3989821726 3.9723719912 1.3546048886
H -3.76065777 2.603816748 0.2920298617
H -5.424526476 -0.880674416 0.1675863549
H -4.6497749786 -0.1516196707 -1.2718959835
H -3.8288685138 -2.8400582468 -0.0691598196
H -4.8925139342 -2.6498991488 -1.475962754
H -3.2112144098 -2.1070174911 -1.5593322327
*
