! pbe def2-sv(p) def2/J RI DEFGRID1 loosescf d4 GCP(DFT/SV(P)) printgap
%output
    printlevel normal
end
* xyz 0 1
C 4.4063626634 1.6198462237 -0.6247237745
C 4.5167080016 0.1594917797 -0.240021527
O 3.51153285 -0.251235415 0.7038022977
P 1.9389543557 -0.0697835736 0.524863903
S 1.2051380754 1.7188564441 0.8279751957
O 1.4075501527 -1.0899053604 1.6051069828
C 1.8174873163 -2.4771854255 1.6379879823
C 2.8364694277 -2.7023753123 2.7362053789
S 1.6055605621 -0.9352869443 -1.3985637419
C 0.3052593078 0.1479558996 -2.0294034128
S -1.3323767691 -0.656294695 -2.1112803129
P -2.2424371397 0.1176463951 -0.3909310201
S -4.1411667462 -0.292518361 -0.1471535691
O -1.9141456481 1.679266441 -0.3521064005
C -2.8106800698 2.6583558731 -0.9018459147
C -2.799304299 2.6429371927 -2.4172413076
O -1.2413905026 -0.4364571794 0.7169904423
C -1.5677528632 -0.2457415155 2.1137927547
C -2.1506988114 -1.5144936428 2.6996003655
H 5.2441770714 1.8885533268 -1.2600213819
H 3.4784869976 1.7992030464 -1.1655168999
H 4.4111875922 2.2480579906 0.2629348975
H 5.4544768612 -0.0429165328 0.2805104685
H 4.4369717845 -0.480396068 -1.1230833455
H 0.8995281613 -3.038218486 1.82515679
H 2.2188541873 -2.756769393 0.6595742356
H 2.4253908699 -2.3964909043 3.6942484556
H 3.0903576023 -3.7570515747 2.7745459053
H 3.7340908965 -2.1223266919 2.5395495702
H 0.5658792569 0.3979035814 -3.0540624453
H 0.2464063209 1.03569134 -1.3935690835
H -3.8177394911 2.4562225017 -0.5221579744
H -2.4431486986 3.6042521755 -0.5014524594
H -3.1743233382 1.6865549847 -2.7811533493
H -3.4413916739 3.4359470198 -2.7867646901
H -1.7900555054 2.7946373569 -2.7911406647
H -0.6239771045 0.0255885787 2.5907273539
H -2.2679179743 0.5895518894 2.2044057336
H -2.3329000732 -1.3654308461 3.7590142865
H -3.08981685 -1.7569210453 2.2061842092
H -1.4586694947 -2.3408972196 2.5650456846
*
