  35
        -72.20735902
 C         -2.7229405867       -1.0143105227        2.0895410187
 C         -3.2786820832       -0.6864156820        0.7091068736
 N         -2.3779813101        0.1364782897       -0.0739193274
 C         -3.0147211342        1.1655078147       -0.8707626527
 C         -4.0243912123        0.5417272049       -1.8330256939
 C         -1.0417053517        0.0161965914       -0.0256582075
 C         -0.3769079035       -1.2429936972        0.0294530507
 C          1.0143391602       -1.3116302657        0.1059096877
 C          1.8012411995       -0.1979344495       -0.0307845146
 C          1.2228797435        1.0988596712       -0.1787230805
 C         -0.1985594089        1.1796978634       -0.0329761085
 N         -0.7406038949        2.4100154047        0.3734228734
 O         -1.7487067454        2.4192561504        1.0714662288
 O         -0.1610748665        3.4624802395        0.0852436545
 N          1.9758095503        2.1648184039       -0.3959121497
 C          3.2895984029       -0.3518742904       -0.0474968996
 F          3.6964162785       -1.6106197691        0.1403357214
 F          3.8517890616        0.0516903635       -1.2106632366
 F          3.9079765133        0.3845220527        0.9065160937
 N         -1.0181705975       -2.4786791558       -0.1939824867
 O         -2.0621521641       -2.5029244892       -0.8342786525
 O         -0.4663542108       -3.5050335797        0.2026590176
 H         -2.3306016650       -0.1116962698        2.5534612786
 H         -3.5255390069       -1.4043221432        2.7080752035
 H         -1.9343494213       -1.7623379183        2.0628170089
 H         -4.1858702585       -0.0956490133        0.8352479577
 H         -3.5407416015       -1.6083786669        0.1746384587
 H         -3.5028618781        1.9017262327       -0.2212775733
 H         -2.2510123927        1.6774062224       -1.4587576282
 H         -3.5618074842       -0.2795246951       -2.3744006946
 H         -4.9003766614        0.1651521328       -1.3162206981
 H         -4.3441879790        1.2971372826       -2.5440603730
 H          1.4623959418       -2.2911498078        0.1905150926
 H          1.5233282608        3.0760571126       -0.4299769343
 H          2.9810613866        2.1207506396       -0.3741430733
