! r2scan-3c def2/J RI DEFGRID2 scfconv6 printgap
%output
    printlevel normal
end
%cpcm
    smd true
    smdsolvent "water"
end
* xyz 0 1
C 5.1152078347 -2.4626339609 -1.4287506243
C 4.0648756658 -1.3863880257 -1.6133403735
O 3.2554682086 -1.3535180129 -0.4194811313
P 2.2654995686 -0.1519611346 -0.1372810735
S 3.0576953843 1.645525948 -0.1552314311
O 1.6865707562 -0.6566902219 1.2411218445
C 1.5439167246 0.1608465607 2.4256327723
C 0.3079761924 -0.2968936277 3.1721775622
S 0.7323409988 -0.4791315638 -1.5790982694
C 0.0255361654 1.1856482374 -1.4951190308
S -0.7540155679 1.523969484 0.0964041676
P -2.5336152777 0.374810641 -0.2006690721
S -3.117920766 0.2473076998 -2.0619525631
O -3.6023725803 1.0746127009 0.7178126676
C -3.6124949298 1.0646415534 2.1698803083
C -2.8299320989 2.2313694969 2.7365062118
O -2.2977220644 -1.0179250423 0.5423830167
C -1.9994195785 -2.2646226282 -0.1202029331
C -0.9083517547 -2.9886636514 0.6419542345
H 4.6347669931 -3.4204231016 -1.2524789301
H 5.7244531216 -2.5236339425 -2.3244914178
H 5.7479598748 -2.2243575824 -0.5786900926
H 3.414607953 -1.6046011003 -2.4654053442
H 4.5201186312 -0.4001700283 -1.7539110858
H 2.4456048853 0.0200654276 3.0256149457
H 1.4724558205 1.2124256122 2.1300228194
H -0.5707238661 -0.19222151 2.5412579964
H 0.4127878587 -1.3388687556 3.4594952969
H 0.1851224605 0.3132053479 4.0608823419
H -0.7196099294 1.2560688904 -2.2881456004
H 0.8189865708 1.9224901072 -1.6198001941
H -4.672310556 1.1426315105 2.4179393452
H -3.2206198192 0.108223719 2.5191247901
H -2.9340715236 2.233653435 3.8169555552
H -1.7756191726 2.1521630838 2.480095002
H -3.2128586253 3.1667660748 2.3377584545
H -2.9268277448 -2.8423432084 -0.1223390348
H -1.7064425245 -2.0663740303 -1.1554593499
H -1.2140529764 -3.142297634 1.6728318098
H -0.7338225191 -3.9509149782 0.1718199304
H 0.0170392123 -2.4183762054 0.6283927046
*
