! pbe def2-sv(p) def2/J RI DEFGRID1 loosescf d4 GCP(DFT/SV(P)) printgap
%output
    printlevel normal
end
* xyz 0 1
C 5.3913401478 -0.199670709 -0.8807185437
C 4.200716224 -1.0516395238 -1.2756500454
O 3.1190440525 -0.842943265 -0.3500996978
P 1.8427629189 0.0589162889 -0.6899035122
S 2.1968558041 1.498816521 -1.9671234554
O 1.3266440148 0.373617501 0.7720421069
C 2.1128344082 1.0969736692 1.7470598905
C 1.968128288 2.5945074035 1.5701497327
S 0.3850388342 -1.3288667437 -1.3263812346
C 0.1881475028 -2.3161947226 0.1803387585
S -0.7850607752 -1.5155758317 1.505424718
P -2.0063767089 -0.1769849068 0.4269902745
S -1.3488351327 1.4943238863 -0.3906065539
O -3.1651358659 0.0954089429 1.4830995398
C -3.1243190914 1.1992944147 2.4020767081
C -1.9822146051 1.0663202323 3.3886701474
O -2.6820668258 -1.2173863002 -0.5578377226
C -3.3349456513 -0.8210136498 -1.7793277934
C -4.6308928794 -0.0873740078 -1.5056103276
H 5.1324872848 0.8542763191 -0.9612614467
H 5.6879284491 -0.4178489324 0.1414976471
H 6.2199557272 -0.4112453655 -1.5485773982
H 4.4307613836 -2.1167050814 -1.2174593635
H 3.8660574263 -0.7986896906 -2.2856138785
H 1.7048753392 0.7635304447 2.7038356293
H 3.1559559514 0.7844562509 1.6605820015
H 2.4743313991 3.1047358984 2.3831912083
H 2.4016506068 2.909070852 0.622700406
H 0.9161573869 2.8713974194 1.5675029741
H 1.1651461041 -2.5424531856 0.602568537
H -0.3302336481 -3.2203262225 -0.1306396482
H -3.0273616189 2.1251896376 1.8252781425
H -4.0960643777 1.1677939307 2.8961346081
H -2.0364575088 0.1106154937 3.9040718595
H -1.0339479068 1.121373074 2.8533588425
H -2.0286268699 1.8747505445 4.1111250634
H -2.6455060822 -0.1942834426 -2.3553845488
H -3.5012550783 -1.7624863613 -2.3043238598
H -4.4201451063 0.8623055481 -1.0151070294
H -5.1415587967 0.1055227394 -2.4437738978
H -5.2687118426 -0.6834481854 -0.8584378177
*
