! pbe def2-sv(p) def2/J RI DEFGRID1 loosescf d4 GCP(DFT/SV(P)) printgap
%output
    printlevel normal
end
* xyz 0 1
C 4.424260475 -0.7733170054 -2.0628295588
C 4.7562310932 -0.7211879512 -0.5859275833
O 3.6018528962 -0.9488152476 0.2431316761
P 2.393175043 0.0816856105 0.3125214716
S 2.9055849813 1.9701692798 0.255126662
O 1.6972064736 -0.3052961266 1.6769055406
C 1.7072060275 -1.6139058512 2.2978130676
C 1.1913296509 -2.7085379194 1.3875075625
S 1.0521929025 -0.5393019109 -1.2333630944
C 0.2277428519 1.0536390247 -1.4519961599
S -0.6620356672 1.6001287985 0.0303721177
P -2.2407130081 0.1922615805 -0.0636429447
S -2.7171510285 -0.4379558923 -1.8632342712
O -3.4475169494 0.8449121189 0.7412406528
C -4.4490053799 1.6458823548 0.090834122
C -3.8992168016 2.9817939361 -0.3645532212
O -1.7057918738 -0.8673763536 0.9884601032
C -2.5525668525 -1.8018577281 1.6980260386
C -3.1027425073 -2.8805281728 0.7872929878
H 3.8962164189 -1.6925509335 -2.3033072695
H 3.7949733137 0.0734360661 -2.3323315226
H 5.343367909 -0.7238584807 -2.6376814407
H 5.182244047 0.2518024033 -0.3227836476
H 5.4421650836 -1.5191361126 -0.2980858291
H 2.7289537099 -1.8249453887 2.620134671
H 1.0636409919 -1.4761920752 3.1685079692
H 0.2070197849 -2.4505057037 1.006532939
H 1.8637929496 -2.8471709264 0.5434384879
H 1.1296019176 -3.6360494619 1.9483989958
H -0.472668279 0.9276555832 -2.2777828885
H 0.9660389666 1.8263284896 -1.6628033323
H -4.8423312985 1.0819881459 -0.761235535
H -5.2237266631 1.7659297868 0.8492707224
H -4.7111142663 3.5963645184 -0.7397984615
H -3.4105471769 3.4919974024 0.4618107644
H -3.1715841321 2.8326344524 -1.1612339994
H -1.8915280018 -2.2205574889 2.4590418615
H -3.3584049027 -1.2421643967 2.1773601793
H -3.6563377794 -3.6018214628 1.3801582327
H -3.7688404973 -2.4451953653 0.0443204524
H -2.2940609492 -3.3879235781 0.2666173903
*
