! pbe def2-sv(p) def2/J RI DEFGRID1 loosescf d4 GCP(DFT/SV(P)) printgap
%output
    printlevel normal
end
* xyz 0 1
C 1.852990363 2.6703689957 0.508208715
C 2.666985344 2.013731857 1.6034751565
O 3.0047258416 0.6516008373 1.2860255715
P 1.9041010526 -0.487140606 1.1512393815
S 0.4474171148 -0.433569492 2.4520349175
O 2.7327584637 -1.822835108 1.3059378651
C 3.9098260155 -2.1479520797 0.5256905966
C 5.1736709809 -1.7018707408 1.2317778688
S 1.3808233085 -0.4456884272 -0.9155416723
C 0.0606177484 -1.6945744828 -0.8097881765
S -1.3207786749 -1.3704428063 -1.9423664115
P -2.2487434505 0.2718259398 -1.0103001173
S -3.9641431607 0.8456542493 -1.7616371544
O -1.1752233105 1.453068695 -0.9015276002
C -1.068770236 2.4565900607 -1.9268427286
C -0.4820836712 1.8929471588 -3.2051218191
O -2.2786693395 -0.2717468184 0.4770850401
C -2.9534236837 0.4634346133 1.5225465761
C -3.349678521 -0.5183580774 2.6042182583
H 1.7165193082 3.7211589237 0.7441409215
H 2.3609070366 2.5759130221 -0.4485994807
H 0.8759501018 2.1935195155 0.4386513006
H 2.1171872808 2.0211768501 2.5498514998
H 3.6349607573 2.4998701285 1.7334602888
H 3.8740998334 -3.2344522931 0.4276783264
H 3.8212889677 -1.6809948604 -0.4593577014
H 5.2128793546 -2.1286401516 2.2303718496
H 6.0342489011 -2.0413430796 0.6637221612
H 5.2016747429 -0.6188028796 1.3116171419
H -0.3103164944 -1.7251491522 0.2155897429
H 0.4542849445 -2.6588605492 -1.1219491825
H -2.06762982 2.8659538932 -2.109325503
H -0.4261475266 3.2208328417 -1.4884591414
H -1.165503117 1.1594529006 -3.6330553826
H -0.3374297648 2.697326462 -3.9187544677
H 0.4709974125 1.4089239534 -3.0046638959
H -2.2565262986 1.2118969104 1.9064701651
H -3.8264131787 0.9621442914 1.0876438901
H -2.4588893114 -0.9886683274 3.0133962634
H -3.8679501744 0.0144010484 3.3944788221
H -4.0026744393 -1.2843170183 2.1951995842
*
