! pbe def2-sv(p) def2/J RI DEFGRID1 loosescf d4 GCP(DFT/SV(P)) printgap
%output
    printlevel normal
end
* xyz 0 1
C 2.607699088 -2.8149639988 -1.6556497809
C 3.7549432272 -2.205622114 -0.8793079574
O 3.6559308541 -0.7647278623 -0.7676385493
P 2.4613164984 0.0404095351 -0.1146180067
S 3.0309068828 1.8174419442 0.4698634788
O 1.8552758092 -0.9108246002 1.0224898532
C 1.9265815384 -0.5923554174 2.4237166118
C 3.27588052 -0.9779825893 2.9952529132
S 0.9309991441 0.0180561425 -1.5820631886
C 7.42373e-05 1.4260732287 -0.9256762737
S -0.7361698656 1.0972615892 0.6961561747
P -2.5530167165 0.1677596529 0.0538403164
S -3.0722077928 0.527639085 -1.8078583133
O -3.6275363566 0.5850077115 1.1345385899
C -4.4690757551 1.7377430478 0.9624485769
C -3.6976444914 3.0331774349 1.1205833774
O -2.4502425562 -1.3363491687 0.5360620745
C -1.4188205285 -2.2670034738 0.1675428445
C -1.5365087654 -2.715515359 -1.2764622264
H 2.8038679432 -3.871932258 -1.8070811573
H 1.6774756967 -2.7012932155 -1.1030773378
H 2.501236062 -2.3281941695 -2.6221466244
H 4.7088299041 -2.347216944 -1.3895734631
H 3.8074505806 -2.6234935516 0.128374836
H 1.7418873089 0.4784539076 2.5535812934
H 1.1136582043 -1.161794676 2.8765113261
H 3.2993895676 -0.7402604903 4.0539037727
H 3.4569161601 -2.0413284842 2.862373036
H 4.0611232469 -0.4160657578 2.4901592467
H -0.7911361688 1.6392159062 -1.6467196654
H 0.6727165969 2.2738473784 -0.8003262263
H -4.9372042043 1.6862867503 -0.0261966326
H -5.2287637499 1.6257133609 1.7371623405
H -2.9950488176 3.1529098197 0.296910458
H -4.3911255012 3.8679797269 1.1136660919
H -3.1443253133 3.0308964119 2.0563277199
H -0.4411667733 -1.8130892469 0.3602331863
H -1.5728090702 -3.1019052401 0.8541029159
H -0.8403638894 -3.5275720705 -1.4606553015
H -2.5481469226 -3.0593251796 -1.4764413888
H -1.306902729 -1.8950221078 -1.9540582925
*
