! pbe def2-sv(p) def2/J RI DEFGRID1 loosescf d4 GCP(DFT/SV(P)) printgap
%output
    printlevel normal
end
* xyz 0 1
C 4.150665509 -3.8411300375 -0.64026791
C 2.6377397275 -3.7062631479 -0.7097192311
O 2.2087664737 -2.4296291228 -0.1969838029
C 2.2257331445 -1.3925624677 -1.0092100595
O 2.5355859491 -1.4332135727 -2.1783713734
C 1.7829718433 -0.1262119742 -0.2984834723
C 0.7134850562 0.5736754079 -1.1346613178
H 1.0986351796 0.7378739506 -2.1456562998
C 0.2933682059 1.8950539115 -0.5257644509
O -0.8589141922 2.1288290828 -0.213048538
O 1.2928225338 2.7157062306 -0.3901315197
C 1.0621959838 3.9795599865 0.2747178265
C 1.2279700572 3.8212011238 1.7769682219
S -0.7754301035 -0.4584861115 -1.3541415681
P -1.82792621 -0.0965064318 0.462732214
S -0.8673929097 0.3152945855 2.131229676
O -3.1698184927 0.6856714387 0.1500168428
C -3.5038291593 1.9932187526 0.6199781456
O -2.5678891983 -1.5173782563 0.5686772945
C -1.8375561586 -2.7045441598 0.881127611
H 4.4366428671 -4.8365935142 -0.9633197891
H 4.6215332486 -3.1096580709 -1.2929197047
H 4.4939927597 -3.6820121673 0.3782443072
H 2.1436862174 -4.4365291848 -0.0688575605
H 2.2866773741 -3.8015626057 -1.7412151969
H 2.6432526217 0.5401507141 -0.2070266795
H 1.4127629925 -0.3775072871 0.6965054662
H 1.8152186293 4.6462777423 -0.1445821642
H 0.0570539688 4.3283198988 0.025832698
H 2.2334658966 3.4855995593 2.0130471644
H 1.0460820209 4.7749605274 2.2606038749
H 0.5190735823 3.0895781668 2.1613653527
H -2.9216099639 2.2402810795 1.5091139841
H -4.565068556 1.9632101593 0.8575725633
H -3.3011850745 2.7192718895 -0.1650282434
H -1.2328936408 -2.5490265066 1.7772771552
H -1.1945790394 -2.9846968847 0.0455312176
H -2.5872266605 -3.4713982751 1.0579760485
*
