  31
        -35.69040955
 C         -6.0792775637       -0.4298472654        0.0615081873
 C         -4.8421729070        0.4527773914       -0.0547088574
 C         -3.5526825662       -0.3583503341        0.0520426196
 C         -2.3086870861        0.5196281897       -0.0607461820
 C         -1.0206069157       -0.2937684060        0.0457631146
 C          0.2235709903        0.5840424240       -0.0652606240
 C          1.5078338047       -0.2336574007        0.0401744918
 C          2.7525049869        0.6433760866       -0.0651064988
 C          4.0367666865       -0.1454343516       -0.0154177304
 O          4.0679368120       -1.3585572849       -0.0821377535
 C          5.2806877177        0.6840660321        0.1322723587
 H         -6.9844607491        0.1670804839       -0.0182395808
 H         -6.0901695032       -0.9454783504        1.0191907530
 H         -6.0890200632       -1.1772011553       -0.7287649519
 H         -4.8591482966        1.2070993302        0.7351667773
 H         -4.8591173410        0.9770550916       -1.0128551370
 H         -3.5349957961       -1.1122678912       -0.7386088044
 H         -3.5368769691       -0.8850939522        1.0091891235
 H         -2.3251239173        1.0461819101       -1.0178911843
 H         -2.3266080064        1.2727781344        0.7305117274
 H         -1.0022250552       -1.0469312247       -0.7453960481
 H         -1.0051858259       -0.8223452967        1.0017457208
 H          0.2053577631        1.3343705586        0.7283225637
 H          0.2066426968        1.1109678750       -1.0218957425
 H          1.5274873249       -0.7694849790        0.9918948069
 H          1.5353319592       -0.9860092900       -0.7510669184
 H          2.7671331548        1.3889604252        0.7314301761
 H          2.7426898408        1.1845442131       -1.0148294243
 H          6.1575801643        0.0970842208       -0.1261700077
 H          5.2246085161        1.5774632934       -0.4813801365
 H          5.3636997570        0.9912691439        1.1731133873
