! pbe def2-sv(p) def2/J RI DEFGRID1 loosescf d4 GCP(DFT/SV(P)) printgap
%output
    printlevel normal
end
* xyz 0 1
C 0.8547545878 1.4095710916 -0.5849940765
C 1.5869909012 0.1692505572 -0.0423383807
H 2.554389237 0.0852122796 -0.5496741388
C 0.7681827443 -1.1112964709 -0.3172632811
H 1.1822805723 -1.9174399788 0.2992370614
C -0.6958271196 -0.9031079673 0.1183744897
H -1.3035029693 -1.7425215356 -0.2522588224
C -1.2648955774 0.4006820863 -0.4710310934
H -1.2990869587 0.3197047653 -1.579221103
O -0.4746878577 1.5094090227 -0.1127222653
O -2.5317660885 0.5818871734 0.0525866702
O -0.7239574986 -0.8467660092 1.5223616431
O 0.8748562755 -1.561890048 -1.6417748374
O 1.8809914518 0.2988616537 1.3248884606
H 0.8557279895 1.3953344957 -1.6838564313
H 1.353186501 2.311524664 -0.229772056
H -2.8137037399 1.4995127254 -0.0863649166
H -1.6113330086 -0.5622480332 1.7951393362
H 0.6101084106 -0.8698029248 -2.2632871235
H 1.0555504422 0.1902706843 1.8281119118
*
