! pbe def2-sv(p) def2/J RI DEFGRID1 loosescf d4 GCP(DFT/SV(P)) printgap
%output
    printlevel normal
end
* xyz 0 1
C 3.537035745 0.4209060647 -2.7516446966
C 4.2880729848 -0.355984186 -1.6890549546
O 3.8685889712 -0.0236696162 -0.3529707533
P 2.3835146054 -0.1036282022 0.1766059377
S 1.1968147301 1.4175712458 -0.2316907037
O 2.7905965297 -0.2653463095 1.6980904246
C 1.8466482033 -0.2273113909 2.7862056778
C 1.7435834063 1.171060796 3.3657541534
S 1.6938280114 -2.0230640963 -0.4361920669
C -0.0118790085 -1.6521187754 -0.9078357305
S -1.0567869058 -1.1786190525 0.5058905741
P -2.1141887778 0.4777428063 -0.3375774341
S -1.7414515263 0.8565408532 -2.2225110514
O -1.8715629479 1.7080064467 0.6161781017
C -2.5491680973 1.9404226607 1.8756058141
C -2.2829449615 0.8475444324 2.8885307047
O -3.6455493164 0.1489877636 -0.0333690456
C -4.476371353 -0.598615634 -0.9366855756
C -4.0010636947 -2.025657121 -1.1194053682
H 3.9505461885 0.1920618797 -3.7286367772
H 2.4805618855 0.1527952146 -2.7444712712
H 3.6168626806 1.4900764287 -2.5679992608
H 5.3505707376 -0.1065435635 -1.6928107606
H 4.1600559132 -1.4326961529 -1.8321239449
H 0.8715325594 -0.5867396602 2.4412447703
H 2.2499331027 -0.9292908673 3.518766325
H 1.3209936483 1.8542057188 2.6313082171
H 1.109120337 1.151513743 4.2464755975
H 2.731055802 1.5295864613 3.6425255452
H -0.3936905533 -2.5753860694 -1.33678863
H -0.0410297835 -0.8353918934 -1.6346724722
H -2.1419163135 2.8994777621 2.1996850937
H -3.618003462 2.0369963995 1.6746056681
H -1.2144177876 0.7377848206 3.0530811229
H -2.7649169091 1.1080436462 3.8255811742
H -2.6834556962 -0.1007719719 2.5334587081
H -5.4626792306 -0.5586727021 -0.4720506944
H -4.494916892 -0.0768481437 -1.8984794672
H -3.8658082344 -2.5097195209 -0.1555007823
H -4.7362206702 -2.5744339602 -1.699178903
H -3.054789474 -2.0310488022 -1.658848823
*
