! pbe def2-sv(p) def2/J RI DEFGRID1 loosescf d4 GCP(DFT/SV(P)) printgap
%output
    printlevel normal
end
* xyz 0 1
C 2.8392946097 -1.6683244456 -2.545846118
C 3.0414871498 -0.4845110724 -1.6219331734
O 2.7394225054 -0.8799606751 -0.2698575005
P 1.8510347205 -0.0874610918 0.7848314228
S 1.2453734523 1.6929464147 0.189425535
O 2.7307372855 -0.0288901034 2.1088298654
C 3.5880321734 1.0807687509 2.4291261501
C 4.7725636839 1.1665468064 1.4876081395
S 0.6019520187 -1.5735978135 1.5811491566
C -0.2791942244 -2.1739338142 0.0876982202
S -0.3675978249 -0.9773483572 -1.2660161983
P -1.9107677449 0.2825952768 -0.5596278923
S -2.2123772928 1.9504026862 -1.5354867284
O -1.5253651196 0.3702176008 0.9756361906
C -1.9560735427 1.4618950655 1.8093175364
C -3.4535778907 1.446010022 2.0253032512
O -3.1843597055 -0.677243239 -0.4728283304
C -4.1122793187 -0.8159226349 -1.5598373719
C -3.5073881903 -1.5594991525 -2.7339506146
H 3.1682366474 -1.3952008109 -3.543021517
H 3.4223574001 -2.5137132284 -2.1925752133
H 1.7885352131 -1.9452963499 -2.5820626381
H 2.4007340733 0.3595254344 -1.8992753132
H 4.0845434516 -0.1586798277 -1.6252767164
H 2.9972626261 2.001994456 2.3881313505
H 3.8992578438 0.8841050539 3.4560476581
H 4.4275916991 1.4255634567 0.4867487957
H 5.4546462839 1.9364423193 1.8344248605
H 5.2908794339 0.2117930746 1.4504640838
H -1.2840769399 -2.4445826401 0.4054940813
H 0.2578497428 -3.0328418363 -0.3084138984
H -1.4058711405 1.3088337494 2.7397873918
H -1.6331781092 2.39949746 1.3439391356
H -3.9630923004 1.6328599341 1.0805390545
H -3.7654309698 0.4796717554 2.4127756996
H -3.7215561681 2.2255739051 2.7313814928
H -4.9506818007 -1.3605137301 -1.1234511522
H -4.4346359057 0.1841378441 -1.8670142176
H -3.1237910439 -2.5261331894 -2.4184089614
H -4.2673464466 -1.7047416971 -3.494909747
H -2.6898911581 -0.9770478318 -3.1585507405
*
