! pbe def2-sv(p) def2/J RI DEFGRID1 loosescf d4 GCP(DFT/SV(P)) printgap
%output
    printlevel normal
end
* xyz 0 1
C 4.2477591337 -0.7669819435 -2.3888974288
C 4.4662045008 -1.2725817641 -0.9774539269
O 3.2267751819 -1.502019295 -0.2854359779
P 2.2599377057 -0.3167566344 0.1434795368
S 3.1545565314 1.3117531659 0.7779889214
O 1.3071875606 -1.0388192214 1.1843730349
C 1.5789435783 -1.0170493279 2.6030559118
C 2.8186942228 -1.813281809 2.9512286768
S 0.9282983589 -0.1089706329 -1.4858886811
C 0.2508159024 1.4948235542 -0.9762577514
S -0.7899880764 1.3886704923 0.4948739182
P -2.3722693695 0.2859064734 -0.432848377
S -2.7065422134 0.6991571559 -2.3136173136
O -3.5606507514 0.4486353222 0.608896225
C -4.0293481449 1.6993419545 1.1486736953
C -4.3914461462 2.7041471485 0.0757286055
O -2.0190456455 -1.2429419562 -0.2839384622
C -1.8300220089 -1.9027307948 0.9898099501
C -3.0626695897 -2.7036768354 1.3552257689
H 3.5731561462 -1.4278494264 -2.9278421472
H 3.8119845033 0.2312363238 -2.3646617515
H 5.2002052647 -0.7223546726 -2.9072597239
H 5.0562531133 -0.5533390338 -0.4001784783
H 4.955430657 -2.2474722842 -0.9697216055
H 1.6855718596 0.0261567918 2.9171087506
H 0.6826441792 -1.4493797376 3.0494627379
H 2.7431720217 -2.8214053328 2.5522806645
H 3.6991766033 -1.332104791 2.5270855551
H 2.9269569152 -1.8568137685 4.030415149
H -0.3450121673 1.8574264681 -1.8142695728
H 1.0662230358 2.1771352817 -0.7358898379
H -4.9029968047 1.4129235481 1.7369136115
H -3.2521444717 2.09915295 1.8060544945
H -5.1083478559 2.2749214873 -0.6202393564
H -4.8218759027 3.5863452456 0.5385480123
H -3.503187688 2.9941899667 -0.4836939038
H -0.9593549171 -2.5455695051 0.843591457
H -1.6055755174 -1.148890594 1.7499593326
H -2.8822045906 -3.2342519338 2.284827843
H -3.9162846759 -2.041825312 1.4763595731
H -3.2850946882 -3.4197734023 0.5690552512
*
