! pbe def2-sv(p) def2/J RI DEFGRID1 loosescf d4 GCP(DFT/SV(P)) printgap
%output
    printlevel normal
end
* xyz 0 1
C 3.2558888417 -1.2443793264 -2.3810317959
C 1.862667267 -0.6617095691 -2.2850462319
O 1.3706478021 -0.6787174381 -0.9325503245
P 1.9993019534 0.2316736394 0.2035137097
S 2.8296197139 1.9252082352 -0.3156868321
O 2.9975230115 -0.8191782437 0.8760766191
C 4.05541973 -0.4132801397 1.7580373168
C 3.5277708717 0.0847307944 3.0889230653
S 0.3755388713 0.3329297357 1.5485576386
C -0.2207480334 -1.3734748159 1.4547189859
S -1.2018124055 -1.7681265701 -0.0395317037
P -1.9602661857 0.1153143001 -0.6009880813
S -0.8676316044 1.5190637421 -1.4296781155
O -2.740304389 0.5296968242 0.7295941929
C -2.7871961447 1.8525186056 1.3021910059
C -2.6687826696 1.7353897558 2.8082460426
O -3.0772326269 -0.2917676473 -1.6481640011
C -4.1624719699 -1.2095044983 -1.3534501923
C -3.9332666208 -2.5390907733 -2.0436070517
H 3.5497553825 -1.2985091292 -3.4244603587
H 3.9587988031 -0.605353597 -1.847408729
H 3.2764777556 -2.2392004668 -1.9437867366
H 1.1298402075 -1.255924267 -2.8344609317
H 1.8381810169 0.3714849095 -2.6479198369
H 4.662369495 -1.3123720987 1.8734422548
H 4.6365995182 0.3700246437 1.2609005662
H 2.8921841302 -0.6645074641 3.5534353473
H 4.3635389504 0.3050486255 3.7451844827
H 2.948131917 0.9955142608 2.9388729853
H -0.8551059645 -1.5144759189 2.3267459368
H 0.6235552872 -2.0598666111 1.4594214773
H -1.9751359436 2.4523595867 0.8774079483
H -3.7435528346 2.2927918051 1.010162007
H -2.7836389942 2.721082995 3.2468626117
H -3.4447966583 1.078445412 3.1899118166
H -1.6939942233 1.3366861549 3.0783937847
H -4.2453346248 -1.3285612977 -0.2710611751
H -5.0545178995 -0.7131761418 -1.7394542273
H -4.7941576093 -3.1781664625 -1.8750836803
H -3.8035674593 -2.3847851323 -3.111248425
H -3.0440204915 -3.0249598287 -1.6480743969
*
