! pbe def2-sv(p) def2/J RI DEFGRID1 loosescf d4 GCP(DFT/SV(P)) printgap
%output
    printlevel normal
end
* xyz 0 1
C 2.6824891437 -3.0506777157 -1.218399571
C 3.9761332653 -2.3154890203 -0.9441666635
O 3.84138331 -0.8774027992 -1.0864796602
P 2.8420350661 0.0338847917 -0.2874516486
S 3.4061403679 1.9095833546 -0.2643075365
O 2.815529373 -0.6825438371 1.1345811731
C 2.2084428126 -0.1095596497 2.3077136722
C 0.9707470132 -0.8951166894 2.6944398948
S 0.9347950714 -0.2894651925 -1.2108730444
C 0.2782162415 1.3882523655 -1.1101654941
S -0.5195626467 1.7358222168 0.4825526909
P -2.2543032329 0.5848677614 0.1097297713
S -2.9603274073 0.6940259779 -1.7213057392
O -3.0918449595 1.1861154277 1.3099747046
C -4.2521034047 0.5367149669 1.8739804806
C -5.4689605554 0.6766337706 0.9812064711
O -1.9371044828 -0.8976838753 0.5987219643
C -1.9029893808 -2.0546914015 -0.2573350429
C -3.1948268863 -2.8363454477 -0.1252009116
H 2.8655609884 -4.1197957359 -1.1747408748
H 1.9366928809 -2.7868389212 -0.4711522106
H 2.2970930231 -2.791777235 -2.2012833936
H 4.7455711064 -2.5636903984 -1.6765711714
H 4.3393781343 -2.5222023801 0.0640693706
H 2.9721740466 -0.1721719677 3.0857832673
H 1.974404779 0.9436494814 2.1210746479
H 0.2062774421 -0.8109782551 1.926226346
H 1.2229838011 -1.9427123365 2.8322265191
H 0.5750775543 -0.4950171553 3.622308647
H -0.4558167767 1.4944754372 -1.9099462362
H 1.0966420401 2.1012699136 -1.2208154262
H -4.0125322287 -0.5142786116 2.0525989632
H -4.3964236549 1.049942784 2.8261989766
H -5.2993733357 0.1811396787 0.0267886839
H -6.3275118605 0.2253967894 1.4685059325
H -5.6752724308 1.7263755798 0.788545755
H -1.7452018626 -1.7348938278 -1.2913458532
H -1.0433706758 -2.6363182273 0.0781239408
H -4.0294406629 -2.2385605 -0.4858435388
H -3.1258983533 -3.7393001754 -0.7228257092
H -3.3704062497 -3.1054721668 0.9126669401
*
