! wb97x-v def2-tzvp def2/J RIJCOSX DEFGRID2 scfconv7 GCP(DFT/TZ) printgap
%output
    printlevel normal
end
%cpcm
    smd true
    smdsolvent "water"
end
* xyz 0 1
C 0.7497766275332628 -1.2574831200854508 -0.47435660776514704
C 0.002966899690134553 -0.00016460531688137565 -0.03778376260559002
C -1.4210164468255837 0.005241496986697104 -0.5738343975060791
C 0.7560652145053941 1.2562440681001201 -0.4660833973817258
O -0.13019331946812865 -0.004650552755971898 1.4149471411018553
H 0.2149438596353758 -2.1543417865223677 -0.14616606142370026
H 0.8455853962459069 -1.290092891524426 -1.564309890303329
H 1.7568620350822788 -1.272739625983127 -0.04298587955100629
H -1.9630254769722262 -0.8835445399860725 -0.23552451054157927
H -1.4111850323774668 0.008321686767176432 -1.6672534575955256
H -1.9581240088404004 0.8950514486046333 -0.2304497843665328
H 0.8507291701126968 1.2962932717233089 -1.5559085939801733
H 0.22641057775526222 2.1535558467646743 -0.13076357414685302
H 1.7637396611169462 1.2630473087635816 -0.03585375818081847
H 0.7656534989562958 -0.00866263064987473 1.7790280288917586
*
