! pbe def2-sv(p) def2/J RI DEFGRID1 loosescf d4 GCP(DFT/SV(P)) printgap
%output
    printlevel normal
end
* xyz 0 1
C 3.1814641177 1.3868044158 -2.5784160459
C 2.5999417412 0.0181706522 -2.2866939909
O 2.9258299052 -0.4046830145 -0.9475784692
P 2.0455315454 -0.1194712442 0.3423708861
S 1.5908700716 1.7364103954 0.7561633069
O 2.9485694722 -0.707054904 1.491035778
C 3.6095711215 -1.9993275848 1.4449733782
C 2.9054272382 -2.9933643413 2.3475837882
S 0.471451402 -1.5422633029 0.0875775129
C -0.4538151435 -1.2325732569 1.6110123922
S -1.3650936886 0.347859999 1.678285407
P -2.117498056 0.4759059223 -0.2998818905
S -0.9687147711 0.8634514919 -1.8497218764
O -3.3038799575 1.5140863479 -0.1085380579
C -3.2080647465 2.7768893332 0.5729093736
C -2.0456672232 3.6225865635 0.0936356599
O -2.9438899132 -0.8645351278 -0.4311524171
C -2.9539289256 -1.7459693012 -1.5735740561
C -2.5531262591 -3.1434923195 -1.1447179986
H 2.9806257243 1.6444510068 -3.6131570318
H 2.7205019295 2.1337705116 -1.935399524
H 4.2540354182 1.3853529553 -2.40403989
H 3.0439133252 -0.7477298522 -2.9254873278
H 1.5151386515 0.0234993637 -2.419952487
H 3.6422394851 -2.3483307758 0.4118678778
H 4.6226188587 -1.7959124377 1.7952998616
H 1.9233710444 -3.2438200584 1.954466945
H 3.5024485347 -3.8981734856 2.4034262844
H 2.7972107074 -2.5780178478 3.345939524
H 0.2275755636 -1.207396323 2.4601822833
H -1.1670531252 -2.0491287927 1.7011129827
H -4.1644048633 3.2573480627 0.3578929591
H -3.1249827053 2.5803738154 1.6459463398
H -2.0949393167 3.7603320749 -0.9843705365
H -2.07819823 4.5914220686 0.5814935709
H -1.0964587273 3.1425590536 0.3372408229
H -3.976272331 -1.7253674888 -1.9558922548
H -2.2730637755 -1.3491009079 -2.3345985714
H -2.6588659932 -3.8138278432 -1.9912855139
H -1.5175854752 -3.1547179873 -0.8109056703
H -3.195398897 -3.4821673031 -0.336808472
*
