  22
  -34.8223171500000       0.500034391333260      !md3
 C         -3.6788480957       -0.1850549859       -0.0402799896
 C         -3.0390209353       -1.0425259552        0.8393225255
 C         -1.6603708737       -1.1513141786        0.8234192943
 C         -0.9044741090       -0.3946641013       -0.0670440246
 C         -1.5546010519        0.4592772708       -0.9523334194
 C         -2.9339006469        0.5613088064       -0.9382193146
 C          0.5641494995       -0.5248510053       -0.0790799027
 C          1.1462518992       -1.7812047612       -0.2358242789
 C          2.5193432855       -1.9366894142       -0.2624302589
 C          3.3434318462       -0.8320468124       -0.1248048829
 C          2.7902004068        0.4249367589        0.0475419533
 C          1.4137947128        0.5682476816        0.0685676706
 Cl         0.7510843537        2.1611222979        0.3400789511
 H         -4.7549136322       -0.0998691551       -0.0280564104
 H         -3.6157315755       -1.6277178920        1.5397400986
 H         -1.1588286020       -1.8128219351        1.5142734195
 H         -0.9770803342        1.0332417412       -1.6621304039
 H         -3.4285034498        1.2256523589       -1.6311282070
 H          0.4984371386       -2.6368059309       -0.3508972034
 H          2.9463647033       -2.9187301295       -0.3907793405
 H          4.4156646850       -0.9438166498       -0.1454384318
 H          3.4178489725        1.2930016501        0.1694867161
  22
  -34.8223170200000       0.499965608666740      !md2
 C         -3.6768754890       -0.1412025298       -0.1725942355
 C         -2.9620385776       -0.0751909553        1.0118723118
 C         -1.5827963555       -0.1781345423        0.9991471552
 C         -0.9025174728       -0.3509007116       -0.2021133396
 C         -1.6284461472       -0.4298263595       -1.3868631654
 C         -3.0070382215       -0.3202548622       -1.3715813750
 C          0.5663433066       -0.4753856989       -0.2311793416
 C          1.1549950246       -1.5865425209       -0.8317844221
 C          2.5282299364       -1.7388385264       -0.8671520795
 C          3.3461298544       -0.7728013118       -0.3048893245
 C          2.7867587926        0.3477312000        0.2843918178
 C          1.4101506005        0.4869133231        0.3169845876
 Cl         0.7410686413        1.9379960311        1.0220105653
 H         -4.7528894238       -0.0554171070       -0.1603431868
 H         -3.4802163614        0.0565590887        1.9500734841
 H         -1.0289428620       -0.1387782604        1.9257299250
 H         -1.1034434873       -0.5607045516       -2.3215685324
 H         -3.5602143556       -0.3741796416       -2.2971825044
 H          0.5117740277       -2.3396127709       -1.2608592793
 H          2.9602144817       -2.6104894591       -1.3327619690
 H          4.4184015611       -0.8837597108       -0.3271358024
 H          3.4098462264        1.1151406486        0.7147212813
