! pbe def2-sv(p) def2/J RI DEFGRID1 loosescf d4 GCP(DFT/SV(P)) printgap
%output
    printlevel normal
end
* xyz 0 1
C 1.0436177774 -0.9406983075 3.2515146508
C 1.8757240484 0.2049824743 2.7116897024
O 1.5039485627 0.5148827095 1.3439695941
P 2.2966932994 -0.0855052093 0.1141476878
S 2.9047665446 -1.9467954548 0.2574376084
O 3.4498814125 0.9963680945 -0.0592472207
C 4.5438499876 0.807959029 -0.9818557219
C 5.7768264978 0.3183175756 -0.2474061433
S 0.9810306564 0.3382137152 -1.4808791242
C 0.017072358 -1.1954207422 -1.3525772812
S -1.0548301076 -1.230141927 0.0992861883
P -2.3474290765 0.3485652138 -0.5386286698
S -2.6985926324 0.4484460541 -2.4577956468
O -1.6874153682 1.6722373852 0.0100981067
C -1.4450978747 1.9179825936 1.4161834044
C -2.5270840146 2.8046971428 1.9963672692
O -3.6210233135 0.1853064392 0.3989314697
C -4.7383041642 -0.6535321586 0.04980682
C -4.3636715876 -2.119199471 -0.0240295352
H -0.015338431 -0.7122072767 3.1729566456
H 1.2425750029 -1.849560981 2.6879315367
H 1.3001641474 -1.1059679779 4.2929655974
H 2.9409617462 -0.0368975433 2.7468708058
H 1.6909428917 1.1297323159 3.2602450725
H 4.2448013016 0.0990539863 -1.7589623793
H 4.7068714446 1.7900414094 -1.4290411913
H 6.6039370576 0.2471668799 -0.9462511945
H 6.0362689911 1.010054287 0.5489965483
H 5.5911463003 -0.6636601741 0.1825263637
H 0.6946938905 -2.0455431362 -1.269117025
H -0.590963035 -1.2526079324 -2.2553157091
H -1.3948667107 0.9589383622 1.9388305006
H -0.466846402 2.4023237041 1.4464525705
H -3.4890474255 2.3010566636 1.9517982605
H -2.2861198143 3.0292437466 3.0307193551
H -2.5896174582 3.7311021234 1.4320274544
H -5.4623100506 -0.4631965048 0.843380363
H -5.1369411224 -0.3104731668 -0.9095506745
H -3.8614011084 -2.4308968511 0.8883439119
H -5.2632090404 -2.710660908 -0.1612504944
H -3.6981324702 -2.2915658437 -0.8685113243
*
