! pbe def2-sv(p) def2/J RI DEFGRID1 loosescf d4 GCP(DFT/SV(P)) printgap
%output
    printlevel normal
end
* xyz 0 1
C 4.3173530455 -2.4507897452 -0.2212490264
C 4.8799861413 -1.0773238475 -0.5260933652
O 4.0334534758 -0.0199776902 -0.0431113531
P 2.5936095567 0.2678997887 -0.6493759271
S 2.459128263 0.066810342 -2.5924009159
O 2.3179058229 1.7587032425 -0.2207304574
C 2.0013071696 2.2524617011 1.1028975534
C 2.9768795199 1.7855263022 2.1606408956
S 1.271981141 -0.9569735363 0.4911849357
C -0.1179949769 -0.8632479157 -0.6537975398
S -0.9831961245 0.7436814415 -0.5670750926
P -2.7548446662 0.043579522 0.3951866064
S -4.044783573 1.4359738738 0.8706177853
O -2.2826726645 -0.9337066201 1.5451334815
C -2.2002285083 -0.4986367515 2.9160023826
C -1.0402687592 0.4511695194 3.1343631999
O -3.2757216722 -1.0889906303 -0.5902765609
C -3.921464628 -0.7296781374 -1.8271981362
C -4.5733519797 -1.9769249248 -2.3883294645
H 3.4159239454 -2.6230272554 -0.8071047777
H 5.0534593417 -3.2041394619 -0.4829095144
H 4.0737359822 -2.5355600856 0.8346349583
H 5.0146289567 -0.9479687718 -1.6046323756
H 5.8265975663 -0.9065266708 -0.0115551926
H 2.0292235592 3.3356520759 0.9757461003
H 0.9806143409 1.9426164931 1.3415961047
H 3.9918348605 2.0558093719 1.8816023841
H 2.7248039555 2.2581760089 3.1049720743
H 2.9209634828 0.7050208828 2.2778147328
H -0.8116313479 -1.659867264 -0.3956245472
H 0.2621069802 -0.9703878291 -1.6711249255
H -3.1468325911 -0.0206276323 3.1869516861
H -2.0751258999 -1.4256105518 3.4766839721
H -1.2044771276 1.3642220724 2.5612142365
H -0.9761440875 0.7052255298 4.1873398562
H -0.10933647 -0.0136663194 2.8180155846
H -4.660979347 0.0519012346 -1.6216140372
H -3.1676553522 -0.3288531425 -2.5128920149
H -5.0695622845 -1.7301189594 -3.3211248938
H -3.8227914086 -2.7404509226 -2.5706065157
H -5.3037206798 -2.3622390346 -1.6828329751
*
