! wb97x-v def2-tzvp def2/J RIJCOSX DEFGRID2 scfconv7 GCP(DFT/TZ) printgap
%output
    printlevel normal
end
%cpcm
    smd true
    smdsolvent "water"
end
* xyz 0 1
C -2.9362893635239677 -0.0002633787690157577 0.00011284730686481635
C -1.4327618765122228 -0.0064893299228474186 -0.0007262272079810046
C -0.7079236052352257 -1.1998567467682026 -0.0007951477595654021
C 0.6859205030385429 -1.2064983513179832 -0.0004392121274499057
C 1.3774803346389153 0.0016006392628440708 -9.378996250954637e-05
C 0.6784244396677895 1.2083494562688093 -0.0001560825725624876
C -0.7112125845592185 1.1937877716835081 -0.0004701184541144906
O 2.757312058382817 0.061081166526977725 -2.9208125932337257e-05
H -3.3314015886889643 0.5284697423720073 -0.8742496197131919
H -3.3335140687879163 -1.0183530383649901 -0.011335963589512252
H -3.3303479794198765 0.507773369341151 0.887237709105629
H -1.2385912925387947 -2.148088399915821 -0.0012698373721105394
H 1.2355473072518812 -2.144043815767841 -0.0007200568908472585
H 1.226308223471865 2.145350312166689 -0.00021456253105024264
H -1.248680728532749 2.1386166783552465 -0.0006152508332805743
H 3.1057156268775326 -0.8413181838761269 -0.00038112579469975306
*
