! pbe def2-sv(p) def2/J RI DEFGRID1 loosescf d4 GCP(DFT/SV(P)) printgap
%output
    printlevel normal
end
* xyz 0 1
C 1.9206477054 -0.3907183688 -3.192074551
C 1.8819606127 -1.3658292765 -2.0331463284
O 1.2661469316 -0.7749204016 -0.8670152489
P 2.0406300674 0.1305628429 0.1750199953
S 2.8254724552 1.8358366448 -0.3817148041
O 3.1249259195 -0.9235328683 0.6994328857
C 4.2960693672 -0.5157025851 1.4213143184
C 3.9622121879 -0.0822656316 2.8345899532
S 0.5798504913 0.2538666681 1.6932882001
C -0.0414251167 -1.4477872588 1.6989707321
S -1.1644644395 -1.8632537844 0.3192804135
P -2.0235976853 0.0212948026 -0.1178763001
S -1.0149644698 1.3570801793 -1.1657070376
O -2.5057648122 0.4074957232 1.3408918848
C -3.6119486303 1.2859996672 1.6428357988
C -3.36240951 2.7082800721 1.1866880128
O -3.3922978145 -0.373578126 -0.8267036695
C -3.4943830475 -0.526860865 -2.2518692277
C -2.7045263989 -1.72270536 -2.7417141663
H 2.5868956014 0.4401570089 -2.9680700513
H 2.272071246 -0.9018802698 -4.0824523189
H 0.9268753176 0.0129113013 -3.3732234475
H 2.8841015302 -1.7101346455 -1.7675856592
H 1.2418590323 -2.2233576197 -2.2526122227
H 4.9376475077 -1.3978720628 1.4088593365
H 4.7723837998 0.303062443 0.8722351417
H 3.4321149552 -0.8713469654 3.3611532674
H 4.8798953801 0.1515759692 3.3643243476
H 3.3334664228 0.8074024272 2.8077309957
H -0.5869655324 -1.5520785259 2.6339140132
H 0.7910967565 -2.1461695092 1.6424734884
H -4.5114813842 0.8767135814 1.1780302189
H -3.6895592364 1.2241835715 2.7296007086
H -4.1790994249 3.3420833758 1.517608997
H -2.4273226107 3.0789898172 1.6010937484
H -3.2960530278 2.7513457864 0.1004455811
H -4.5640356197 -0.6432313387 -2.4297077078
H -3.1329292937 0.3924549279 -2.7246983704
H -2.8621088107 -1.8513782176 -3.8075612176
H -1.6431107969 -1.5550914103 -2.5571742643
H -3.0116211054 -2.6222813965 -2.2146011913
*
