! pbe def2-sv(p) def2/J RI DEFGRID1 loosescf d4 GCP(DFT/SV(P)) printgap
%output
    printlevel normal
end
* xyz 0 1
C 2.6478362373 -1.681084847 -2.5855532025
C 2.8604115324 -0.1908422798 -2.4221623622
O 2.0173368642 0.3900623014 -1.389834838
P 2.066793765 -0.0103920998 0.1318564749
S 1.5146925064 1.4255117037 1.3479569653
O 3.5867737079 -0.4521802041 0.2946623211
C 4.1180345405 -0.8080185791 1.5852528541
C 5.6300164064 -0.7935697601 1.4856115144
S 1.0025463716 -1.8464635391 0.3712458312
C -0.2914757536 -1.3927089296 1.5572838186
S -1.9541397414 -1.4594144716 0.8402754401
P -2.0615888277 0.559452329 0.1740296468
S -1.9293831151 1.9169176439 1.5759040308
O -3.4267050988 0.5671447464 -0.6329338848
C -4.6913774653 0.527388838 0.0611675298
C -5.7700988135 0.9512443798 -0.9145519635
O -0.9754261884 0.6845203822 -0.9663355596
C -1.1177689798 -0.0274881627 -2.2271939118
C -1.7216112029 0.8720673399 -3.2838979659
H 1.6111942592 -1.9066187661 -2.8218332367
H 3.2809261073 -2.0379997913 -3.3921213471
H 2.9148636132 -2.2034893787 -1.6686362305
H 2.5705858694 0.3619933151 -3.3172331846
H 3.8993133066 0.0280400029 -2.1714873983
H 3.7559908605 -0.0841596324 2.3232492
H 3.7444923793 -1.8025228324 1.8448876385
H 5.9603454449 -1.500531841 0.730414704
H 5.9766202763 0.2002180648 1.2164101674
H 6.051632044 -1.0702682741 2.44622487
H -0.095454971 -0.3806152877 1.927401687
H -0.2701565719 -2.1204828568 2.3635640426
H -4.849832632 -0.4941943128 0.4165109804
H -4.6357241611 1.2016126488 0.9220607583
H -5.5857802283 1.9653233577 -1.2582043594
H -5.7815495651 0.2826465447 -1.7703541865
H -6.7329024966 0.91326743 -0.4160025833
H -0.0991666974 -0.3141587741 -2.4896537565
H -1.7267779318 -0.9204065704 -2.062240824
H -2.7347649441 1.1517005052 -3.0085348588
H -1.1247861114 1.7747956176 -3.3853301347
H -1.7387524899 0.3418808189 -4.2310914997
*
