! pbe def2-sv(p) def2/J RI DEFGRID1 loosescf d4 GCP(DFT/SV(P)) printgap
%output
    printlevel normal
end
* xyz 0 1
C 3.0257620958 2.2608796914 -1.9254239805
C 3.8120930905 1.9708426013 -0.6625616132
O 3.6466381871 0.6100021753 -0.2336353403
P 2.2914620067 0.0851046408 0.4153547727
S 1.5079569061 1.3639719497 1.6807352975
O 2.7569617853 -1.2988210905 1.0219421651
C 2.8933471078 -1.5480984785 2.4399242562
C 1.7996960549 -2.485432546 2.9124784728
S 1.1968733357 -0.5922990472 -1.2718155245
C 0.1343444117 -1.8119910265 -0.4484211703
S -1.0213708029 -1.0850217452 0.7389381943
P -2.2161384691 -0.0506208651 -0.6953247079
S -2.3669795933 -0.9048829585 -2.4463652784
O -1.6130721055 1.4038127905 -0.7897349533
C -1.6699671469 2.3575238539 0.3031148346
C -0.9020086494 3.5888055864 -0.1254668737
O -3.5839510041 0.2124048091 0.0718258243
C -4.6751056369 -0.7277473039 0.0529784421
C -4.3325649637 -2.025954231 0.7539627039
H 3.2233598404 3.2771393481 -2.2510621632
H 3.3061133906 1.5665218967 -2.7134091997
H 1.957537487 2.1504893505 -1.7356901988
H 3.496849537 2.6319026664 0.1522447347
H 4.8858845393 2.0703853063 -0.8258247204
H 3.8830634118 -1.9909043353 2.5600179251
H 2.847181399 -0.5957832306 2.9770724026
H 1.9375161644 -2.6841243251 3.9703216056
H 0.8217867133 -2.0294898256 2.7625905367
H 1.8420551538 -3.4235726512 2.3659203401
H 0.7466820805 -2.5285022987 0.0924078374
H -0.4297557677 -2.2916080243 -1.2493624932
H -2.7190699786 2.5832127497 0.5006180567
H -1.2222034076 1.9015631522 1.1910989974
H 0.1505689129 3.3480377767 -0.2484911011
H -1.2928934036 3.9650181187 -1.0664242091
H -0.9989422269 4.3493876429 0.6421657747
H -5.4810361421 -0.1956412884 0.5603646043
H -4.9486600422 -0.9140738425 -0.9899547526
H -3.9456115505 -1.8284982513 1.7506037954
H -5.2261006738 -2.6373981644 0.8279185127
H -3.5804320052 -2.5695901325 0.1843772202
*
