! r2scan-3c def2/J RI DEFGRID2 scfconv6 printgap
%output
    printlevel normal
end
* xyz 0 1
C -1.8736247829 -0.142981513 0.3795845481
C -0.7107545952 -0.624099476 -0.4829836477
N 0.5152026678 0.0606542311 -0.0813201234
O 0.5486925107 1.2700980886 -0.1713835395
O 1.4391640792 -0.6125248802 0.3292256004
H -1.7230794025 -0.4232931143 1.4188021718
H -1.9628195031 0.9385000375 0.3151811331
H -2.7937605493 -0.5951817622 0.0252585427
H -0.8980657699 -0.3650323891 -1.5272112847
H -0.5399179383 -1.6951370875 -0.3753454699
*
