! pbe def2-sv(p) def2/J RI DEFGRID1 loosescf d4 GCP(DFT/SV(P)) printgap
%output
    printlevel normal
end
* xyz 0 1
C 3.7588406799 0.3190751619 -2.7962531099
C 4.6224917 -0.1903744559 -1.6588855919
O 3.8960261984 -1.0669734732 -0.7829807824
P 2.7635343696 -0.5332407225 0.1865731482
S 3.1172208428 1.2544968992 0.9265574902
O 2.8211778126 -1.7753399368 1.1665875559
C 1.748665701 -2.2055898497 2.0203846827
C 1.4013816742 -1.1772460183 3.0789512671
S 0.928930268 -0.758339648 -0.8822696171
C 0.1715814408 0.8525992158 -0.5327873929
S -0.9435189543 0.8384717058 0.8976647326
P -2.7811601046 0.3909809734 -0.0921262566
S -2.7459928586 0.4947335008 -2.0558645239
O -3.8709315052 1.3152728444 0.5883928339
C -4.2137961406 2.604330122 0.054595517
C -3.1003319703 3.6145175166 0.2510986344
O -3.2926929246 -0.9486071215 0.5799743306
C -2.4995427001 -2.1325044949 0.7624016673
C -2.1682909933 -2.8142151324 -0.55085103
H 4.3776531766 0.8637502372 -3.5021123897
H 3.2767394979 -0.511752443 -3.3054049728
H 2.9919660601 0.9903459325 -2.4114885276
H 5.018028815 0.6449574108 -1.0712788044
H 5.4450523833 -0.8065964569 -2.0242590508
H 0.8789622008 -2.4375179576 1.3974499265
H 2.1311512696 -3.1241208773 2.4690320554
H 2.2901969362 -0.9040088053 3.6423688279
H 0.9951798814 -0.2760954791 2.6195605441
H 0.6609933875 -1.5906302825 3.7564792197
H -0.3988526197 1.1317280766 -1.4201030116
H 0.9610102407 1.5714005071 -0.3065626854
H -4.4498799362 2.4928277397 -1.0090463351
H -5.1128261929 2.8856256161 0.604550298
H -2.2423095375 3.3495315464 -0.3654869196
H -3.4511801536 4.5986640966 -0.0425103076
H -2.791413967 3.6375247241 1.2931887203
H -1.5879416666 -1.8634877397 1.3058137466
H -3.125721742 -2.7666413114 1.3925170432
H -1.6646888623 -3.7550766184 -0.3529088666
H -3.0786285295 -3.0057835833 -1.1132800054
H -1.5147848732 -2.1851114044 -1.1544766454
*
