! pbe def2-sv(p) def2/J RI DEFGRID1 loosescf d4 GCP(DFT/SV(P)) printgap
%output
    printlevel normal
end
* xyz 0 1
C 4.0397577784 -0.8833421726 -2.5263346429
C 4.3522882539 -0.8499790271 -1.0432913264
O 3.6670623386 0.2611272424 -0.405808659
P 2.4500367568 0.0871724123 0.5846135411
S 1.973652054 1.7868614973 1.4205901291
O 2.9629391383 -1.0499280554 1.5711218439
C 2.3859543669 -1.2439529012 2.875536732
C 0.9431837677 -1.6984038525 2.7954387201
S 0.966916766 -0.92805837 -0.5753627942
C 0.5093070059 0.4956908549 -1.5957036188
S -0.6794445098 1.6092485368 -0.797476117
P -2.281477917 0.2310001912 -0.7781578538
S -2.4881748036 -0.9060839373 -2.3534787678
O -3.5652152385 1.13258084 -0.5538877857
C -3.632335462 2.3350606007 0.246579216
C -3.2979872298 2.0887621792 1.7027908183
O -1.998489096 -0.560261403 0.5828207408
C -2.3695063754 -1.9403747663 0.7489858198
C -3.8676775917 -2.0867219033 0.9206432457
H 4.6591984886 -1.638848103 -2.999280489
H 2.9944024167 -1.1305320929 -2.6958949115
H 4.2532553325 0.0831135711 -2.9750517293
H 5.4116521755 -0.6578751092 -0.8671209838
H 4.0602535127 -1.7797222682 -0.5522228663
H 3.0245795056 -2.0008330394 3.3328834742
H 2.4631753771 -0.3034231413 3.4295260231
H 0.8602501929 -2.5792236652 2.1627233408
H 0.5836860162 -1.9310328662 3.7927690917
H 0.3295038344 -0.9016256759 2.3751673968
H 0.0612923399 0.0974856328 -2.5064816797
H 1.3927008759 1.093957275 -1.8127404924
H -2.954344528 3.0749940418 -0.1873742903
H -4.6658553498 2.6616114293 0.119500902
H -2.258714544 1.7818791421 1.8056550966
H -3.4469716767 3.0083770277 2.2601884348
H -3.939789953 1.3132354075 2.1124139207
H -2.0223379647 -2.5033739735 -0.1232388531
H -1.8249941832 -2.2605770335 1.6379057074
H -4.3751976584 -1.7095029605 0.0326846503
H -4.1162188345 -3.1349894982 1.0517724431
H -4.2074375939 -1.5240280489 1.785983636
*
