! pbe def2-sv(p) def2/J RI DEFGRID1 loosescf d4 GCP(DFT/SV(P)) printgap
%output
    printlevel normal
end
* xyz 0 1
C 0.4761615452 3.0973318795 1.7824481967
C 1.4767355792 2.0164314208 1.4328327196
O 0.8518298815 0.7290389293 1.6724495019
P 1.474565043 -0.5948982982 1.0824378654
S 0.6730953831 -2.2478316935 1.7580361418
O 3.0016519036 -0.3956748103 1.5070412129
C 3.948989983 -1.4744530731 1.568777689
C 4.2357309795 -2.08117234 0.2102482736
S 1.5540246654 -0.3457130282 -1.035774721
C 0.4108447084 -1.6449736836 -1.5561650383
S -1.0965855545 -1.0456513849 -2.3903713503
P -1.8913936128 0.2670848327 -0.937141581
S -3.7887530156 0.6791949195 -1.1826322904
O -0.9278073503 1.535318134 -0.9501217738
C -0.9383576518 2.4005101691 -2.1080889942
C 0.3937419621 3.117023097 -2.1904564852
O -1.4612065239 -0.4036704832 0.4351553007
C -2.4066457684 -0.5820704019 1.5109226755
C -2.5075482559 0.6708200377 2.352677582
H -0.4121092726 2.9947004408 1.1648924798
H 0.187611373 3.0212025543 2.8270704896
H 0.928329239 4.068681841 1.6080445726
H 2.370310718 2.0757931756 2.0573347774
H 1.7678220635 2.0669639786 0.3798209245
H 4.8391275113 -1.0109448808 1.9966516058
H 3.5608783425 -2.2344962888 2.253965461
H 4.5032594724 -1.3061758363 -0.5033575371
H 5.0561071841 -2.7856969613 0.3025674265
H 3.357807362 -2.6123704897 -0.1541462808
H 0.1366837627 -2.2414026869 -0.6822603584
H 0.9088290903 -2.2524251826 -2.3081215304
H -1.115324574 1.7917724308 -3.002428141
H -1.7715186932 3.0987956673 -1.9919924219
H 1.1997518172 2.3940689071 -2.2877057654
H 0.3890799327 3.7649751188 -3.0607899011
H 0.5535000776 3.7154804053 -1.2987760921
H -3.3794855624 -0.8441016162 1.0836832261
H -2.0121559055 -1.4252661032 2.081124224
H -2.8909603163 1.4899804094 1.7458876237
H -3.1865273574 0.4913118619 3.1801129309
H -1.5265824586 0.9369557837 2.7364504503
*
