! pbe def2-sv(p) def2/J RI DEFGRID1 loosescf d4 GCP(DFT/SV(P)) printgap
%output
    printlevel normal
end
* xyz 0 1
C 3.0504902733 -1.982750366 1.5736237608
C 2.844191171 -2.537188548 0.1736758312
O 2.6677799827 -1.4630141729 -0.7711877613
C 1.46075357 -1.0987890921 -1.1232566754
O 0.4369929318 -1.6305537394 -0.7244314316
C 1.4749908011 0.0450234596 -2.1097968494
C 0.3869429813 1.0629260466 -1.7844746028
H 0.3629026581 1.8414532679 -2.5525485369
C 0.5525888694 1.7443819807 -0.436447109
O -0.3841886949 2.2223459488 0.1695358227
O 1.7983075554 1.7521887606 -0.0360444161
C 2.1058878348 2.371960331 1.2306858763
C 2.1997493417 3.8821746008 1.0960482249
S -1.302907745 0.3504622963 -1.8383127686
P -1.6047842516 -0.3157559029 0.1430482756
S -0.429592821 -0.3666451487 1.7270463242
O -2.8630703773 0.6488239893 0.3675923455
C -3.5950184668 0.6735090796 1.5947536631
O -2.3958218441 -1.6960047884 -0.0456839968
C -1.8701050352 -3.003038924 0.1760396559
H 3.2324828973 -2.8024372473 2.2605027236
H 3.9005871936 -1.3070735779 1.5866494356
H 2.1633494362 -1.4424093098 1.9008837235
H 1.966014162 -3.1872909386 0.1373473739
H 3.7289756954 -3.0702149556 -0.1761448552
H 1.2787553289 -0.3648585887 -3.1024849657
H 2.4572852737 0.5158795797 -2.0925029183
H 1.3342391544 2.0848622467 1.9512205998
H 3.0629336935 1.9329064769 1.5113267774
H 1.2320981103 4.2946970504 0.8193114054
H 2.5012922446 4.3043131745 2.0487802423
H 2.9313216397 4.1462446961 0.3374962362
H -4.2476502827 -0.1974204797 1.6546161902
H -4.1760138925 1.5918773643 1.5717962758
H -2.9073003234 0.6808187753 2.4435609044
H -1.3855777808 -3.3608090894 -0.730088821
H -2.7242262192 -3.6252688133 0.433274011
H -1.14924826 -2.9807493476 0.9949458997
*
