! pbe def2-sv(p) def2/J RI DEFGRID1 loosescf d4 GCP(DFT/SV(P)) printgap
%output
    printlevel normal
end
* xyz 0 1
C 2.3999000971 1.0030569882 -2.7648239479
C 1.7505548261 1.4518722926 -1.4708446614
O 1.6716357718 0.3277570495 -0.5805487408
P 2.1961687179 0.3270836802 0.92482975
S 3.5307333165 1.7109943515 1.2937075946
O 2.6427332241 -1.1817593553 1.1373594366
C 3.7350861419 -1.7408895088 0.3707662132
C 3.2023950892 -2.5950627067 -0.7622667703
S 0.5094344444 0.3079650232 2.1658774291
C -0.3018634776 -1.2316922059 1.5660124975
S -2.0658462818 -1.0052411244 1.297462632
P -1.8961625202 -0.1562864264 -0.6544153099
S -0.8003698267 -1.1473548763 -1.9312070634
O -1.3454622037 1.3061370366 -0.4065267436
C -1.9979991816 2.2724319808 0.4534524412
C -2.8755004706 3.2057454983 -0.3540535689
O -3.4014461254 0.1037306998 -1.0885098158
C -4.1976529551 -0.8990071872 -1.7461845623
C -4.4719968418 -2.0925980398 -0.8551754708
H 3.418033527 0.6697404967 -2.5796283691
H 1.8287585264 0.1849759007 -3.197526715
H 2.4172743056 1.835696546 -3.4602156761
H 0.7270913574 1.7931968133 -1.6403645287
H 2.3305066956 2.2454672066 -0.987215149
H 4.3625948583 -0.9238716304 0.0002912825
H 4.3044640839 -2.3359677857 1.0871804169
H 4.036436588 -2.9996888002 -1.3266538553
H 2.6080049587 -3.4134827157 -0.3654310425
H 2.575862267 -2.0029049908 -1.4257402633
H -0.1867882985 -1.9902755173 2.3346786809
H 0.1667190006 -1.5335496288 0.6287668454
H -2.577962459 1.7389513742 1.2115395619
H -1.1779353453 2.8083369074 0.9372505195
H -3.6828495577 2.6508994257 -0.8241784417
H -3.2941615752 3.956090959 0.3093014291
H -2.2897337494 3.6980849405 -1.125687673
H -5.1163253668 -0.371384452 -2.0063420908
H -3.6765505385 -1.2093594276 -2.6569487458
H -3.5511404153 -2.6449598176 -0.6756738625
H -4.877280344 -1.7680300018 0.0999375445
H -5.1845770298 -2.7480749959 -1.345517487
*
