  19
        -29.55677491
 C         -2.9245786391       -0.3668354226       -0.0000516175
 C         -2.6847811704        1.0159940968       -0.0000131651
 C         -1.4049366956        1.4966017860        0.0000369714
 C         -0.3032792597        0.6153304940        0.0000400008
 C          1.0257103880        1.0840074978        0.0000477191
 C          2.0778628690        0.2036758372        0.0000034990
 C          1.8350916550       -1.1870192271        0.0000294843
 C          0.5576247043       -1.6625684388        0.0000296734
 C         -0.5466958787       -0.7830809297        0.0000081415
 C         -1.8776092206       -1.2465748702       -0.0000137342
 O          3.3783510959        0.6006471391       -0.0000497068
 H         -3.9418716560       -0.7286787437       -0.0002039724
 H         -3.5219275850        1.6981844281       -0.0000297744
 H         -1.2190015558        2.5609493222        0.0001331589
 H          1.1998996398        2.1509836031        0.0000278184
 H          2.6876615526       -1.8478814814        0.0000678257
 H          0.3745955444       -2.7268384287        0.0000521758
 H         -2.0546453714       -2.3124674629       -0.0001283485
 H          3.4414626175        1.5676610993       -0.0005237863
  19
        -29.55618946
 C         -2.9271091155       -0.3473404666        0.0001830719
 C         -2.6775817568        1.0346951024        0.0000553398
 C         -1.3952585275        1.5069950878       -0.0001201715
 C         -0.2987441447        0.6180476538       -0.0001835280
 C          1.0311382193        1.0761336473       -0.0001330875
 C          2.0803017277        0.1887718776       -0.0000022827
 C          1.8276966088       -1.1978786971       -0.0000454127
 C          0.5446147109       -1.6649675249       -0.0001353269
 C         -0.5523606259       -0.7793921932       -0.0001351941
 C         -1.8870574703       -1.2341937443        0.0000511508
 O          3.3502647496        0.6777710836        0.0002684618
 H         -3.9471089999       -0.7014718144        0.0003342017
 H         -3.5104789745        1.7220932436        0.0000874639
 H         -1.1995119634        2.5694173815       -0.0001968514
 H          1.2371493167        2.1355975226       -0.0000788410
 H          2.6594370347       -1.8878718493        0.0000671710
 H          0.3544942382       -2.7281778830       -0.0001223231
 H         -2.0716386458       -2.2988134729        0.0001128105
 H          3.9941741358       -0.0465992662        0.0010814016
