! pbe def2-sv(p) def2/J RI DEFGRID1 loosescf d4 GCP(DFT/SV(P)) printgap
%output
    printlevel normal
end
* xyz 0 1
C 5.3098578154 -1.9012724826 -1.278663078
C 4.5403826204 -0.6113607284 -1.042559021
O 3.1228172958 -0.824619897 -1.179388782
C 2.4417831822 -1.2102582699 -0.1175557058
O 2.9207178617 -1.4031417263 0.9761834629
C 0.9679610182 -1.3885194148 -0.4411354729
C 0.3886679408 -0.0957738452 -1.0193313386
H 0.9237712378 0.169697251 -1.9351472769
C 0.4977151348 1.0467879477 -0.028291892
O -0.474520218 1.6191700902 0.4241439779
O 1.7396230896 1.3186779754 0.2590988255
C 2.0384315811 2.3524238361 1.2258682344
C 3.1945143945 3.1850494621 0.7047935159
S -1.3536388192 -0.2771590348 -1.5058798809
P -2.4058858472 -0.0499967419 0.3339529526
S -1.6027969518 -0.6533419 2.0193288061
O -3.1134784293 1.3615956838 0.3998747405
C -3.904949661 1.8808898709 -0.6862296457
O -3.6976340077 -0.9380747931 -0.0413639863
C -3.6309904736 -2.3628969192 -0.1255098613
H 5.0604377189 -2.3131380549 -2.2525037686
H 6.3746489435 -1.6969959352 -1.2381482001
H 5.0613049974 -2.630184404 -0.5106468361
H 4.7784241044 0.1373941929 -1.798175721
H 4.7373480412 -0.2217245076 -0.0399707244
H 0.4467190095 -1.6738014848 0.4754701443
H 0.8638836426 -2.1812048484 -1.1832077206
H 1.1368171967 2.9501214085 1.3844708031
H 2.3000007275 1.8391087022 2.1552284721
H 4.0626599356 2.5539486436 0.5398604615
H 2.9239482268 3.6670927033 -0.2302392855
H 3.4403594649 3.9446427312 1.439332068
H -4.1821762382 2.8849469749 -0.3757814121
H -4.786898514 1.2596452965 -0.831765878
H -3.3118352313 1.9103655609 -1.6003793658
H -4.66236557 -2.7061408824 -0.1286367655
H -3.0996877873 -2.7644129398 0.7393730552
H -3.1252119354 -2.65616798 -1.0452406884
*
