! r2scan-3c def2/J RI DEFGRID2 scfconv6 printgap
%output
    printlevel normal
end
* xyz 0 1
C 2.3880317849 -2.9485484587 -2.1856779857
C 1.4791923141 -2.5656797814 -1.0365669905
O 1.1860077183 -1.1436907401 -1.0695245101
P 1.9263080898 -0.088084194 -0.1595865515
S 1.3491892411 1.744807459 -0.5324387938
O 3.4572140144 -0.3995312178 -0.4515233979
C 4.5130424172 0.524383912 -0.1344874067
C 4.663769259 0.7393004788 1.3573029804
S 1.6545347314 -0.7937822024 1.8298859584
C -0.0352897713 -0.2063829158 2.0734563418
S -1.2462905364 -1.0435006441 1.0009991528
P -2.0966283109 0.6328810857 -0.0025644717
S -1.8968330437 2.3662856024 0.877191195
O -3.6038520759 0.1669955057 -0.2312884174
C -4.6516504462 0.416254098 0.7234318185
C -4.4425878166 -0.3281128362 2.0260469169
O -1.5508559936 0.588497638 -1.4819095319
C -1.8086014676 -0.535771613 -2.3617413638
C -0.9224914174 -0.3811010427 -3.578926811
H 3.3457650428 -2.4438410248 -2.0913549071
H 2.5454049266 -4.0223561164 -2.1671879338
H 1.9352710415 -2.6690394167 -3.1330161501
H 1.9330399192 -2.8117452355 -0.0728989098
H 0.5046199499 -3.0516002288 -1.1156604531
H 5.4013856483 0.0607451768 -0.5659187098
H 4.3035929079 1.4719960746 -0.6401483266
H 3.7985241791 1.2747292279 1.7456079415
H 4.7472799305 -0.2146071091 1.8720425286
H 5.5539784476 1.331016053 1.5451784879
H -0.0908866959 0.8691661101 1.881728511
H -0.2840252117 -0.4333498161 3.1069650499
H -4.7023518387 1.4945886007 0.9020928416
H -5.5526918493 0.0813038967 0.2075353022
H -4.2702366283 -1.3846396493 1.8372704686
H -3.5838474765 0.0835571933 2.5540432614
H -5.3245331842 -0.2104225579 2.6473548731
H -1.5863456027 -1.456848487 -1.8146217403
H -2.8677663187 -0.5190270547 -2.6259235375
H 0.1211383246 -0.3670514239 -3.2754365363
H -1.0957802226 -1.2122451356 -4.2548060473
H -1.1465588719 0.5533884347 -4.085538554
*
