! pbe def2-sv(p) def2/J RI DEFGRID1 loosescf d4 GCP(DFT/SV(P)) printgap
%output
    printlevel normal
end
* xyz 0 1
C 1.4113509873 -3.8367978061 0.2996634787
C 2.3983360591 -2.6846252236 0.3018499788
O 2.0913453467 -1.8197806742 -0.8070888842
C 2.2231085887 -0.5173198827 -0.6806283035
O 2.5963203722 0.0582497361 0.3200713697
C 1.8245043017 0.2031738056 -1.9572968919
C 0.4685206487 0.8874911542 -1.7608780215
H 0.2409439968 1.506933213 -2.6328751492
C 0.4574844825 1.7557856453 -0.5200378365
O -0.3876682842 1.6292892079 0.3495590192
O 1.420896756 2.626031652 -0.5131806957
C 1.5682547201 3.4854318222 0.6382494654
C 0.6561800897 4.6962537568 0.5357245593
S -0.8977371853 -0.3133609532 -1.6549611556
P -1.3773769259 -0.5723199309 0.4167208617
S -0.157431398 -0.7535471888 1.943141234
O -2.7246610544 0.2630960997 0.6619106741
C -2.8720038589 1.4064010856 1.4994600157
O -2.0177569935 -2.0322991159 0.2541011555
C -3.0963070559 -2.3570267849 -0.6380536971
H 0.4058535263 -3.4663133519 0.4903661719
H 1.4278488862 -4.3389018681 -0.6629028738
H 1.6788612944 -4.5378547158 1.0828479626
H 3.4233912094 -3.0369575225 0.1582712455
H 2.337827155 -2.1042644284 1.2278466357
H 1.7556091503 -0.5147736007 -2.7725551831
H 2.573053912 0.9673976049 -2.1696108426
H 1.3556334371 2.8980709823 1.5358235232
H 2.6197640975 3.770569723 0.6189487582
H 0.8505300781 5.233936668 -0.3880273205
H -0.3863598552 4.3876807824 0.5581169578
H 0.8441508888 5.3527690321 1.3785798065
H -3.8652276963 1.3296647081 1.9371806822
H -2.7828046913 2.310429385 0.8993532855
H -2.1105870523 1.405079631 2.2803021491
H -3.9130385659 -1.6483922767 -0.5146258622
H -3.4091776469 -3.3578521109 -0.3506266893
H -2.7410487496 -2.3469409105 -1.6681781267
*
