! r2scan-3c def2/J RI DEFGRID2 scfconv6 printgap
%output
    printlevel normal
end
%cpcm
    smd true
    smdsolvent "water"
end
* xyz 0 1
C 5.4346813563 0.947870792 -1.7183273328
C 4.3166146733 1.2699396154 -0.7474920248
O 3.2214861192 0.3688277369 -1.0130900746
P 2.151238662 -0.0211842288 0.0945575624
S 2.9216358845 -0.4631895301 1.8460303489
O 1.3398173628 -1.1647275624 -0.6272663098
C 1.7558879142 -2.5501221404 -0.6096306614
C 0.5782848483 -3.4078873548 -0.1951760926
S 0.7726446862 1.5617892491 0.0443281564
C -0.0415923964 1.1970981549 1.6234570501
S -1.0301329012 -0.325440441 1.5985982226
P -2.2578799507 0.0706540179 -0.0869452361
S -1.672393102 -0.4637257993 -1.8840784189
O -2.5396587965 1.6069697454 0.1482986622
C -2.8534048334 2.5365107294 -0.9138175679
C -2.0915459937 3.8236715248 -0.6716628861
O -3.6637042577 -0.564649334 0.3104170232
C -4.0097158841 -1.9267243663 0.018402334
C -3.3366766872 -2.8851244169 0.9799005401
H 5.0755460914 1.0402637096 -2.7393035647
H 6.2538399919 1.6414399487 -1.5597191189
H 5.7880344798 -0.0672593863 -1.5601488253
H 3.951764825 2.2911330251 -0.8826013504
H 4.6357363552 1.134431846 0.2915354892
H 2.086746113 -2.7847956237 -1.6228687423
H 2.5924777245 -2.6617800336 0.0880723291
H 0.2907368202 -3.1770336927 0.8286196453
H -0.2635040924 -3.2123975752 -0.8554702683
H 0.8543556345 -4.4548941793 -0.2634291427
H -0.6805355579 2.0451859763 1.8540313581
H 0.7165223521 1.0454737401 2.3932117973
H -2.5777276205 2.0836478538 -1.8724373192
H -3.9329964996 2.6972810151 -0.8867600806
H -1.0202335456 3.6337296784 -0.6886992309
H -2.3409814879 4.5344202183 -1.4525829302
H -2.3619031319 4.2418199118 0.29362667
H -5.0959959726 -1.9546611101 0.1139718331
H -3.7224959679 -2.1432262677 -1.0165889873
H -3.5978559549 -2.6361090468 2.0048417132
H -3.6511358549 -3.9004132013 0.7613682734
H -2.2545624413 -2.8163701529 0.8720336515
*
