! r2scan-3c def2/J RI DEFGRID2 scfconv6 printgap
%output
    printlevel normal
end
%cpcm
    smd true
    smdsolvent "water"
end
* xyz 0 1
C 0.6381462218 -1.9223616499 2.7393511997
C 1.5847886594 -0.7393937093 2.6877962981
O 1.3142476062 0.0691758007 1.5213571347
P 2.2038457113 -0.0003907913 0.2129682954
S 2.931639124 -1.7545368075 -0.2873551657
O 3.3173666294 1.0837002734 0.5621807782
C 4.5502274098 1.1878237891 -0.1712574423
C 4.3319675856 1.6947593231 -1.5821975223
S 0.9245267386 0.9672041258 -1.1506665463
C 0.1314941158 -0.5237646862 -1.8130339486
S -0.7943095259 -1.4616215712 -0.5668512021
P -2.2112442101 0.0288843983 -0.116372385
S -2.8088269349 1.2045042085 -1.5716636738
O -1.5061329957 0.7138301518 1.1253123824
C -1.9018154495 2.010683221 1.6245062076
C -0.9324149375 3.0755019699 1.150613474
O -3.394990534 -0.7465506926 0.6146531033
C -4.521582811 -1.2860152323 -0.0984252826
C -4.1325597642 -2.4604558588 -0.9729138287
H 0.8305484913 -2.5949919641 1.9058007363
H 0.7828701628 -2.458730563 3.6716029799
H -0.3910126443 -1.5770524205 2.6747548467
H 2.6264733746 -1.0724184695 2.6641927496
H 1.4333739545 -0.0684580354 3.5349401685
H 5.1488195656 1.8822908443 0.4196740662
H 5.0268935431 0.2023277801 -0.1858654271
H 3.7849084281 0.9539041759 -2.1637250055
H 3.759912399 2.6190829432 -1.5676576773
H 5.2935912531 1.8717558962 -2.0530908514
H 0.8884962165 -1.2033084416 -2.2026339873
H -0.543694744 -0.1844225058 -2.597710186
H -2.9199312356 2.2319566528 1.2913111992
H -1.8853260062 1.909486713 2.7108776462
H -0.9911686111 3.1837054651 0.0693681935
H -1.1814903512 4.0226378751 1.6181892429
H 0.084515552 2.7957830121 1.4155002025
H -5.2139074092 -1.581733028 0.6909120778
H -4.9625665431 -0.4861943986 -0.7020735907
H -3.5943075109 -3.2038187805 -0.390214098
H -5.0278294217 -2.9082979597 -1.3921063181
H -3.4920987334 -2.1230004807 -1.7867017005
*
