! r2scan-3c def2/J RI DEFGRID2 scfconv6 printgap
%output
    printlevel normal
end
%cpcm
    smd true
    smdsolvent "water"
end
* xyz 0 1
C 1.5848756811 2.6861956536 -1.3047202377
C 2.0405448915 2.4459292317 0.1227905024
O 3.0162719282 1.3847314434 0.1529851587
P 2.7032288385 -0.025523342 0.8003510968
S 2.3647135422 -0.0338506721 2.7364173486
O 4.0503391611 -0.7045109771 0.3319362927
C 4.5688321608 -1.8829360232 0.9731591208
C 3.7066920484 -3.1019836435 0.7110741853
S 1.1641458126 -0.883612697 -0.4106803074
C -0.092186693 -1.1906689627 0.8617478665
S -1.2978477984 0.1484813446 1.0000797448
P -2.2257278429 -0.0976118664 -0.9141564766
S -1.9743058448 -1.8703945414 -1.7096236525
O -1.7059345355 1.0627233986 -1.8428511607
C -2.2053622549 2.4258717542 -1.8465247709
C -2.111161053 3.0956657515 -0.4920891167
O -3.7385287276 0.3160520314 -0.6614387413
C -4.637357539 -0.560216483 0.0482252878
C -6.0530599246 -0.0991881213 -0.2329987016
H 0.9882892969 3.592090727 -1.3448003156
H 2.4540955171 2.8035714361 -1.9457392233
H 0.9958900073 1.8468137701 -1.6698345147
H 1.2017648486 2.1930056179 0.7818837055
H 2.5541629646 3.3222183692 0.5242035348
H 5.5655600351 -1.9959019675 0.5445173539
H 4.6464879227 -1.6899792779 2.0481463971
H 2.7443797845 -2.9928149633 1.2102028753
H 3.5369115877 -3.222678649 -0.3561368784
H 4.2044492114 -3.9851075135 1.0986606863
H 0.3887493242 -1.271472353 1.8384385075
H -0.6048465346 -2.1088724579 0.5802479354
H -1.5721793989 2.9179297517 -2.586385723
H -3.2384959937 2.402990906 -2.1970128573
H -2.4375703685 4.1266599222 -0.5872155344
H -2.7500055009 2.5878310415 0.2275255862
H -1.0900394052 3.0771672812 -0.1217832431
H -4.4722232783 -1.5852715355 -0.2997700108
H -4.4009440777 -0.5004430701 1.1140733328
H -6.2598059824 -0.1570150415 -1.2979387297
H -6.7476224162 -0.7394916403 0.3006566653
H -6.18424346 0.9269777063 0.0974763762
*
