! pbe def2-sv(p) def2/J RI DEFGRID1 loosescf d4 GCP(DFT/SV(P)) printgap
%output
    printlevel normal
end
* xyz 0 1
C 4.0669853018 -3.5605079734 0.6655973695
C 2.921216666 -2.5923773438 0.8805293621
O 2.8800237491 -1.6969716102 -0.2502624572
C 1.8385107172 -0.9214599538 -0.3910659294
O 0.9032371098 -0.9021930205 0.3959946589
C 1.9000947993 -0.0601682099 -1.6237480979
C 0.7511439987 0.9330252872 -1.6354213041
H 0.7645813578 1.5394710552 -2.544509364
C 0.7553550065 1.8621754896 -0.4319921035
O 1.607917588 1.8324909826 0.4281033186
O -0.253271321 2.7023120356 -0.4777814265
C -0.3842287564 3.6814690819 0.5698236042
C 0.4158263589 4.9313754941 0.2403567454
S -0.8829836755 0.1052602529 -1.7568930313
P -1.4857030668 -0.5331453287 0.1865767651
S -1.4697236258 -2.4384443157 0.6837212197
O -1.1000303698 0.5698335694 1.2676273097
C -0.4433446826 0.2775240591 2.5015108973
O -3.0226206341 -0.0508920763 0.0749988347
C -3.9409759981 -0.6987711795 -0.8038341941
H 3.9026243189 -4.1390701821 -0.2382683387
H 5.0005205052 -3.0144793217 0.5706145513
H 4.1283372551 -4.2335930307 1.5140358535
H 3.0622150661 -1.9905665374 1.7835329241
H 1.9559840101 -3.1043318832 0.953853017
H 1.8490214749 -0.7030245696 -2.5042892881
H 2.859001111 0.4610052641 -1.6288422896
H -1.4538664516 3.8869041245 0.6150362052
H -0.0467041948 3.2352301489 1.5090925223
H 1.4775525597 4.6980553944 0.2048990536
H 0.1059933758 5.3306622414 -0.721238203
H 0.2443936319 5.6764620019 1.0100591829
H 0.581446189 0.6471761727 2.4473374016
H -0.4359519266 -0.7983054249 2.6848106203
H -1.0030854561 0.7913677333 3.2803693692
H -3.6981946398 -0.4649917473 -1.841546063
H -4.9218452669 -0.3097717464 -0.5426610685
H -3.9062722017 -1.7796561693 -0.6507896873
*
