! pbe def2-sv(p) def2/J RI DEFGRID1 loosescf d4 GCP(DFT/SV(P)) printgap
%output
    printlevel normal
end
* xyz 0 1
C 2.3623015119 0.3109901553 -2.8224689629
C 1.9172340799 -0.8630843493 -1.9746104186
O 2.6809098643 -0.9547000818 -0.7605421379
P 2.3721602185 -0.1532474624 0.5792934545
S 2.4741646212 1.7980780658 0.58357652
O 3.4592282112 -0.7397766403 1.5554872305
C 3.6494254718 -2.1568909371 1.7931658751
C 4.7886602477 -2.6942040899 0.9515828335
S 0.5300267227 -1.0147591162 1.227310777
C -0.2986639428 0.4734871661 1.8765929331
S -2.0755624912 0.4036870814 1.608929506
P -2.0378745334 0.4711805996 -0.5280011484
S -0.7185225642 1.6668951382 -1.3402212816
O -3.5709434862 0.6790263351 -0.8854099887
C -4.4288465904 1.6855083945 -0.3161579672
C -3.8588118695 3.0824662971 -0.4426454133
O -1.7775581191 -0.9997002933 -1.0305012405
C -2.5926663165 -2.1366283107 -0.6485800431
C -3.564281161 -2.4843512154 -1.7573598228
H 1.8358433777 0.2868677392 -3.7711962971
H 2.1274479452 1.2485698611 -2.3213368601
H 3.4335931279 0.2640098472 -2.9977078004
H 2.1058222815 -1.8121702904 -2.4802595529
H 0.8523098853 -0.784083304 -1.734116347
H 3.8761224555 -2.2253650564 2.8585950301
H 2.7132466242 -2.6810963963 1.5803737767
H 5.6961187982 -2.1324420869 1.1550405932
H 4.9499608898 -3.7390911044 1.1975973985
H 4.5527603591 -2.6046921404 -0.1052883539
H 0.1256152324 1.3483281585 1.3734610738
H -0.1507064945 0.5273550495 2.9523682355
H -5.3567392854 1.5823747555 -0.88147877
H -4.6010229707 1.4318555924 0.7334401666
H -4.5803738111 3.8029898158 -0.0713053832
H -2.9412452093 3.1693485521 0.1382812797
H -3.6273573978 3.3063122595 -1.4815255403
H -1.8767777331 -2.9416388477 -0.4721409595
H -3.1167966125 -1.9027896023 0.2820702718
H -4.1274106618 -3.3673422897 -1.4721403089
H -4.250370991 -1.6589972611 -1.9280319906
H -3.0232482355 -2.6842938562 -2.6779710841
*
