! pbe def2-sv(p) def2/J RI DEFGRID1 loosescf d4 GCP(DFT/SV(P)) printgap
%output
    printlevel normal
end
* xyz 0 1
C 0.0764848973 -2.9982358374 1.5615747399
C 1.3927199541 -2.2490023975 1.5844455742
O 1.1487522831 -0.8861073613 1.1681523336
P 2.1799622368 -0.0656507711 0.2933347663
S 3.1657347512 -1.0811743455 -1.0697132049
O 3.0953148157 0.5774552033 1.4256876208
C 4.3747231481 1.1699790841 1.1429604082
C 4.245137281 2.4473794831 0.3387588169
S 0.944185366 1.5074291195 -0.3639560103
C 0.362132555 0.7010216238 -1.8775581727
S -0.6519238461 -0.7663782007 -1.5687391884
P -2.2489300168 0.2340424797 -0.6077936019
S -2.6321119794 2.0868330859 -1.0891019767
O -1.8650310877 -0.0285022897 0.9219148576
C -2.3159691947 0.8131646853 2.0021015555
C -1.2301699997 1.7858619526 2.4172693746
O -3.5131054425 -0.6670317781 -0.9374304647
C -3.5486121218 -2.1128056127 -0.896623294
C -3.8173236179 -2.6293629335 0.5024769538
H -0.6416939592 -2.4971405811 2.2044004057
H -0.3158105746 -3.0288189624 0.5480491282
H 0.2351337808 -4.0113082713 1.916409176
H 2.1192855359 -2.7017407531 0.9007980092
H 1.8175199351 -2.2111807883 2.5900797153
H 4.8014306248 1.3554133973 2.1295356822
H 4.982837473 0.4359265782 0.6046632892
H 5.2186584889 2.919444974 0.2538678445
H 3.8736611798 2.2228300788 -0.6603184155
H 3.5521912771 3.130803912 0.8232153177
H 1.2147630866 0.3614037299 -2.4654370247
H -0.2246931617 1.4451187468 -2.4149410454
H -3.2178890257 1.3486856932 1.6909655946
H -2.5599412944 0.1219128701 2.8112090891
H -0.3037842839 1.2501504997 2.6110514957
H -1.0533377621 2.5118457217 1.6264591812
H -1.5412357493 2.3079282336 3.316399255
H -4.3593739107 -2.3715687192 -1.5800038002
H -2.6030389431 -2.4978643411 -1.2888870076
H -4.7321776309 -2.19052866 0.8920499574
H -3.926001118 -3.7087378012 0.4655567148
H -2.9929516648 -2.3789705507 1.1643275692
*
