! pbe def2-sv(p) def2/J RI DEFGRID1 loosescf d4 GCP(DFT/SV(P)) printgap
%output
    printlevel normal
end
* xyz 0 1
C 1.3645982787 -2.0346501235 -2.2741398139
C 1.730723662 -0.5758117601 -2.4535535413
O 1.4836612392 0.2231713728 -1.267752431
P 2.1577360148 -0.0172426822 0.1400579671
S 2.1907564775 1.6237037453 1.2116947003
O 3.552516407 -0.6420888454 -0.2906591859
C 4.5153272736 -1.2031080097 0.6225457413
C 5.3295113009 -0.1344837367 1.3239906917
S 1.2045408327 -1.656038514 1.1132844956
C -0.0638242215 -0.7783802065 2.0651743243
S -1.7450578927 -1.170628902 1.519371345
P -2.0065879516 0.2443432021 -0.0259709874
S -1.1952642487 2.0039170845 0.3190547044
O -3.580257606 0.2666340177 -0.2334015357
C -4.447135968 1.0359422233 0.6228140923
C -5.6952823373 1.3857443137 -0.1625559912
O -1.5268078006 -0.5649710211 -1.2995124242
C -2.0613027236 -0.3489985444 -2.6278670713
C -1.9106232594 1.0874729125 -3.0817234008
H 0.3460530628 -2.1290075825 -1.9054765268
H 1.4491080148 -2.538023962 -3.2324285072
H 2.0353401455 -2.5124585869 -1.5632111147
H 1.1083223474 -0.0945585524 -3.2097179922
H 2.7839032151 -0.4661108339 -2.717900685
H 3.990803743 -1.8349267024 1.3440263769
H 5.1472517401 -1.8223892829 -0.0173851677
H 5.8122086959 0.5104927063 0.5944277696
H 4.6899194609 0.47823267 1.9552559925
H 6.0862415826 -0.6098843681 1.9396633502
H 0.1142003051 0.2992184276 1.9852622865
H 0.0061226795 -1.1111160485 3.0973549034
H -4.6832902592 0.4241423944 1.4965461409
H -3.9106858876 1.934545023 0.9464838366
H -5.4408048165 2.0025289181 -1.0200234164
H -6.1807330923 0.47866141 -0.5102555947
H -6.3760642718 1.9340192313 0.4801398232
H -1.4814462611 -1.0311442703 -3.251671077
H -3.1109316266 -0.6486655303 -2.622705738
H -0.8761033937 1.4117809676 -2.9840741779
H -2.2220223712 1.1769493214 -4.1177457849
H -2.5260596356 1.7421406798 -2.4656324337
*
