! pbe def2-sv(p) def2/J RI DEFGRID1 loosescf d4 GCP(DFT/SV(P)) printgap
%output
    printlevel normal
end
* xyz 0 1
C 3.649423729 -1.5706383238 -2.4999889093
C 4.0126820957 -0.1807384723 -2.0205710652
O 3.587484432 0.0590958226 -0.6660370851
P 2.0565183367 0.0935508506 -0.2427890263
S 0.8932566545 1.0029596402 -1.5274168722
O 2.0751700424 0.8341598401 1.14588423
C 2.8560036411 0.4296785488 2.2971652379
C 4.1957020744 1.1356719241 2.3195039897
S 1.67741576 -1.9504227906 0.2184076939
C -0.018586495 -1.8310215495 0.8394668317
S -1.2530613391 -1.5293641498 -0.4673751897
P -2.0239321489 0.2997090311 0.2210184105
S -1.0923800252 1.2483168976 1.6581934835
O -3.4614175937 -0.2596925846 0.6621606648
C -4.4309355186 0.601456912 1.2910757676
C -4.4628204994 0.3603913815 2.7876609589
O -2.2815939974 1.2709455999 -1.0035486733
C -2.5280353529 0.8794432476 -2.3740354656
C -3.7222131273 -0.0398786009 -2.5192734611
H 4.005430388 -2.3198718426 -1.7972698959
H 2.5679292016 -1.6607287347 -2.5927074338
H 4.1001415272 -1.7426617733 -3.4721004605
H 3.5567750141 0.5793410126 -2.6623000717
H 5.0931256021 -0.0355607006 -1.9819359621
H 2.2361303336 0.7177153224 3.1490356726
H 2.9832261474 -0.6564543957 2.2761404644
H 4.0493420611 2.2118612915 2.2826981612
H 4.7157193724 0.8756326887 3.2361998972
H 4.7961354841 0.8327108755 1.4659899837
H -0.0903963615 -1.0229759832 1.5734787473
H -0.2362532466 -2.7971442037 1.2867738993
H -4.1883445322 1.6454369001 1.065431599
H -5.3844719556 0.3397509685 0.8279230393
H -5.2476134076 0.9640235855 3.2321657831
H -4.6549167185 -0.6896848977 2.988076487
H -3.5077828645 0.6349084734 3.2304602904
H -2.6854178957 1.8342642088 -2.8782961911
H -1.615655275 0.4154394345 -2.7583638991
H -3.5453142581 -0.9782045313 -1.9954298716
H -4.6145447985 0.4310682733 -2.1139957061
H -3.8753299045 -0.2492684455 -3.5733280176
*
