! pbe def2-sv(p) def2/J RI DEFGRID1 loosescf d4 GCP(DFT/SV(P)) printgap
%output
    printlevel normal
end
* xyz 0 1
C 5.0634903593 1.1329677339 -0.0588882602
C 3.7619000007 1.3727722802 -0.7938223109
O 2.9933348795 0.1578022758 -0.8944745398
P 2.2539829185 -0.4689681385 0.3598381818
S 1.7247534839 0.8477227243 1.7205461487
O 3.299983514 -1.5607903673 0.8468636161
C 2.9780314517 -2.7640145695 1.5677247488
C 2.0345605034 -2.5221678021 2.7275591506
S 0.76423691 -1.6321262888 -0.6150066216
C 0.1887690301 -0.4082008097 -1.8243230536
S -0.4775597509 1.099724024 -1.0855403625
P -2.4922350469 0.4385647532 -0.7476298662
S -3.01826638 -1.19460207 -1.6816170795
O -3.3797376276 1.6454391301 -1.2254994397
C -3.2313505156 3.0003134212 -0.7307705456
C -4.2648696616 3.2942779699 0.3370351331
O -2.6858223771 0.507646613 0.8310181877
C -1.9277126886 -0.2125362653 1.8155583254
C -2.1576935308 -1.7087020098 1.7504024859
H 5.6470831802 2.0479654608 -0.0458228062
H 4.8518819307 0.8292559514 0.9658940877
H 5.6309861841 0.3449361059 -0.5464577928
H 3.9264801458 1.6719910105 -1.8296647727
H 3.1577793749 2.1278467139 -0.2798382471
H 2.5424541006 -3.4743606118 0.8592296633
H 3.9485508456 -3.1282953848 1.9092308438
H 2.44215703 -1.7713484936 3.4005653354
H 1.0731077729 -2.1693698358 2.3546889048
H 1.8847698076 -3.4498682126 3.2703503072
H -0.5985112975 -0.9075121424 -2.3933410783
H 1.0190081138 -0.1138496693 -2.460152949
H -2.2149766582 3.1328385759 -0.3495753411
H -3.3777704816 3.6296088627 -1.6104497328
H -4.1096828935 2.6521923891 1.1997947897
H -4.1759583543 4.3324090601 0.6414774307
H -5.2626145617 3.1180486172 -0.0552235726
H -0.8674528581 0.0343164321 1.6963142239
H -2.2800911843 0.1997310503 2.7629609723
H -1.6739251647 -2.1803942681 2.6000954615
H -3.2229263828 -1.9238474536 1.7793319662
H -1.7461184209 -2.1242189223 0.8320936059
*
