! pbe def2-sv(p) def2/J RI DEFGRID1 loosescf d4 GCP(DFT/SV(P)) printgap
%output
    printlevel normal
end
* xyz 0 1
C 1.4959608643 -3.836391823 0.3142306007
C 2.4633921429 -2.6675367255 0.3171236802
O 2.1541750933 -1.8170215162 -0.8023787798
C 2.2209481309 -0.5105959621 -0.6744747506
O 2.5401069137 0.0835873902 0.3344711918
C 1.8211389636 0.1926430384 -1.9602205306
C 0.4681674094 0.8828823516 -1.7645232298
H 0.2420343734 1.503850211 -2.635523228
C 0.4641300788 1.7488045434 -0.5218828148
O -0.3629270977 1.6069905217 0.3625225104
O 1.4101395038 2.6378410959 -0.532815994
C 1.5623348691 3.4988115157 0.6169902302
C 0.6135453864 4.6831609044 0.5420078862
S -0.9014753228 -0.3141818103 -1.6566761861
P -1.3876594715 -0.5754408743 0.412596832
S -0.1730645667 -0.8044451229 1.9359949515
O -2.7157624969 0.2883419119 0.6673029531
C -2.8380074043 1.4123338601 1.5346182251
O -2.0612400616 -2.0192832147 0.23343711
C -3.1511162106 -2.308294423 -0.6572048271
H 1.766000691 -4.5255306731 1.1070755997
H 0.4820923269 -3.4813615645 0.4899229717
H 1.5322850575 -4.3470982091 -0.6432507848
H 3.4954288339 -3.0037412413 0.1864877328
H 2.3823995475 -2.0809433665 1.2375419416
H 1.7493883661 -0.5349512239 -2.7665690741
H 2.571093446 0.9522551203 -2.1845382986
H 1.3899164294 2.9031815104 1.5176862862
H 2.6042112528 3.8144670342 0.5710792558
H 0.7670546966 5.2274867436 -0.3855444223
H -0.418755553 4.3448703762 0.5920983094
H 0.805341154 5.3436868499 1.3808450334
H -2.0686938126 1.3807320405 2.3071256801
H -3.8276111244 1.3400242571 1.9812250333
H -2.7414786997 2.3291693924 0.9554470114
H -2.7994301153 -2.299785867 -1.6885520634
H -3.9483061764 -1.5791343002 -0.5254221892
H -3.4896349359 -3.302600325 -0.3762777179
*
