! pbe def2-sv(p) def2/J RI DEFGRID1 loosescf d4 GCP(DFT/SV(P)) printgap
%output
    printlevel normal
end
* xyz 0 1
C 0.591681367 1.7035197341 0.0179590313
C 1.3999588559 0.4217422826 -0.2455346475
H 1.5987087127 0.344247334 -1.3217773809
C 0.5538446556 -0.7821346446 0.1963632169
H 0.3525563166 -0.7152753703 1.2728741441
C -0.7915563437 -0.7407991226 -0.5496252825
H -0.6147576776 -0.8384471128 -1.6321738003
C -1.4758021576 0.6174559246 -0.2920199411
H -2.3659976893 0.7084934566 -0.9330076861
O -0.6525329462 1.6763184715 -0.6703117067
O -1.8295260429 0.7412434724 1.0567825313
O -1.6632898834 -1.7462579381 -0.0990261478
O 1.1935387746 -2.0222283365 0.0132083414
O 2.6640621328 0.4508115828 0.3606619715
H 1.1169905143 2.5763492866 -0.3688781938
H 0.4144947115 1.8230649154 1.0933396161
H -2.3353643069 -0.0496338356 1.3033847262
H -1.1581955868 -2.5702765518 -0.0066078327
H 1.6747831945 -2.0270700024 -0.8261770377
H 2.5700994774 0.5009401644 1.3230316426
*
