! pbe def2-sv(p) def2/J RI DEFGRID1 loosescf d4 GCP(DFT/SV(P)) printgap
%output
    printlevel normal
end
* xyz 0 1
C 4.2159013356 -1.3662695197 -2.5103506525
C 4.8338990025 -1.2073209528 -1.1365529834
O 3.84860482 -1.222417306 -0.0870463131
P 2.755122735 -0.0817053663 0.0787827272
S 3.3663958074 1.7500471505 -0.2259657074
O 2.2501809606 -0.2808159867 1.5575955493
C 1.7324051975 -1.5285540575 2.0813362073
C 2.8187003029 -2.3056102192 2.7959314068
S 1.1364391448 -0.7353050181 -1.1489058763
C 0.1780260523 0.7873153974 -1.0016797965
S -0.6522123432 0.9584616752 0.6053363352
P -2.669240157 0.6395976023 0.0212298318
S -2.989375403 0.52945656 -1.9157639044
O -3.2813603717 1.8591995324 0.8218416333
C -4.6497636621 1.9267885477 1.2810702815
C -5.6433868306 1.879937629 0.1387010201
O -3.2384766375 -0.5964138162 0.8474982304
C -3.2307895741 -1.9381784693 0.3315758729
C -1.8463141091 -2.5502455121 0.3829006357
H 3.5611344722 -2.2337292095 -2.5338972
H 3.634968675 -0.4808198233 -2.7636999683
H 5.0048771868 -1.4889341455 -3.2454038562
H 5.3914600011 -0.2680835121 -1.071380964
H 5.4876480773 -2.0452108873 -0.8902713508
H 0.9403878571 -1.221160114 2.7671505077
H 1.3082770516 -2.1097341148 1.2576378599
H 2.383816196 -3.1944457967 3.242215978
H 3.594892316 -2.5985867674 2.0943320343
H 3.2632519718 -1.69296338 3.5754222038
H -0.5774631607 0.775154249 -1.7917712963
H 0.8561961803 1.6338379276 -1.1150122477
H -4.8184456155 1.10605097 1.9813734714
H -4.6916186481 2.8809084097 1.8090407096
H -5.4301322 2.6674565479 -0.5804997829
H -5.5832366789 0.9205565979 -0.3736671175
H -6.6479918297 2.0117652108 0.5280794723
H -3.9312380918 -2.4725665016 0.9749432252
H -3.6073201208 -1.9186453557 -0.6964364069
H -1.4387671755 -2.4717561126 1.3875920746
H -1.9043256746 -3.5955953627 0.0977900781
H -1.1834655356 -2.0359477468 -0.3124241967
*
