! pbe def2-sv(p) def2/J RI DEFGRID1 loosescf d4 GCP(DFT/SV(P)) printgap
%output
    printlevel normal
end
* xyz 0 1
C 2.9007656238 0.8964206805 -2.059080987
C 2.1394522562 1.7438745847 -1.0629592165
O 1.2417344061 0.967466549 -0.2243619493
P 1.7117293698 -0.0826180123 0.8655825415
S 0.5764155172 -0.1227722536 2.4619723823
O 3.2018274616 0.3789701872 1.1630884699
C 3.9086799176 -0.0513027891 2.3390836932
C 4.25077568 -1.5256342865 2.2836270982
S 1.9522078333 -1.9231655065 -0.1917685123
C 0.4567694673 -1.9045773035 -1.2119363062
S -1.0917125901 -1.7777874784 -0.2644364575
P -1.7384483575 0.1365955603 -0.8775309813
S -0.988945043 0.9031093889 -2.5046009853
O -1.5629355559 0.9730720559 0.4708315827
C -1.5211449333 2.4101367742 0.4819816188
C -2.8885278729 3.0134662611 0.2344930906
O -3.3049814177 -0.0750392692 -1.0580696833
C -4.1297617324 -0.6406247499 -0.0114406806
C -5.5518631719 -0.166871179 -0.2306288574
H 3.5363386516 1.5477713024 -2.650902103
H 3.5211000354 0.1656394591 -1.5456845555
H 2.2119158251 0.3837889797 -2.7264014153
H 1.4672373646 2.4358423538 -1.5737794975
H 2.8200301949 2.2902156268 -0.4089865744
H 4.8036624005 0.5721712258 2.348295216
H 3.2896791342 0.1683955918 3.214897918
H 4.8647018531 -1.7847545781 3.1401054539
H 3.337358136 -2.118937763 2.3115905497
H 4.7889654083 -1.7578832812 1.3685251872
H 0.4482301986 -2.8632054773 -1.7250579037
H 0.4886195726 -1.0773353786 -1.9253759098
H -1.1370171744 2.6523884007 1.474852625
H -0.8073178426 2.7404898202 -0.2789201557
H -2.8175239179 4.0951112743 0.292744919
H -3.2407744807 2.7333104786 -0.7582830538
H -3.5975339295 2.659441107 0.9787632326
H -4.0552836118 -1.7287705474 -0.084193833
H -3.7404858575 -0.3216848876 0.9600949154
H -5.6080457719 0.9151700578 -0.1493835635
H -5.8887261421 -0.4607855435 -1.2204938797
H -6.1949283549 -0.6176341396 0.518283617
*
