! pbe def2-sv(p) def2/J RI DEFGRID1 loosescf d4 GCP(DFT/SV(P)) printgap
%output
    printlevel normal
end
* xyz 0 1
C 5.3556337826 0.026617475 -2.2439164282
C 3.974412344 -0.5194717834 -1.9443884123
O 3.5256811549 0.0642012593 -0.7041774331
P 1.9904761648 0.0560702294 -0.2977134997
S 0.7974397603 0.8090812062 -1.6541301092
O 1.9610782056 0.8682833982 1.0454129314
C 2.8020480415 0.5819416579 2.1931090526
C 4.0498590854 1.4394865251 2.1700248542
S 1.7309599428 -1.993729478 0.2295231637
C 0.0535626736 -1.9549182964 0.9105562416
S -1.2662875777 -1.9392160386 -0.3480173194
P -2.1507147793 -0.056288135 0.0254774441
S -1.2761726405 1.006546993 1.4315679945
O -3.6788445262 -0.3901984272 0.3411647837
C -4.1322831879 -0.7861851616 1.6506686193
C -4.8100431191 0.3776355818 2.3478502723
O -2.2762284234 0.4902094994 -1.4466169934
C -3.2745681616 1.4372888869 -1.8858622439
C -3.1713345589 2.7562637785 -1.1492551587
H 6.0395809361 -0.2302520047 -1.4403396285
H 5.7140753305 -0.4050050867 -3.1725512429
H 5.3155003959 1.1077908825 -2.3431679591
H 3.9903433366 -1.6055536517 -1.8210300759
H 3.258702711 -0.2576297821 -2.7308283582
H 2.1689339078 0.8179735898 3.0508822573
H 3.0528159342 -0.4824121336 2.1922993688
H 3.7779163578 2.4905485511 2.1249785571
H 4.6220283833 1.2547977855 3.0738421233
H 4.6569984188 1.1966113905 1.3022417405
H -0.0638319504 -1.068976018 1.5431491776
H -0.0481017051 -2.8732809763 1.4821878644
H -4.8278489093 -1.608048035 1.4725893206
H -3.2816955119 -1.1443805611 2.2368954936
H -5.2080204009 0.0412461918 3.2995864292
H -4.0903144488 1.1737608849 2.5267707261
H -5.6197838336 0.7626532141 1.7344380552
H -3.0557119813 1.5539012028 -2.9486019489
H -4.2595092084 0.9846979271 -1.7510810071
H -3.3916999117 2.6132907277 -0.091754272
H -2.1628371904 3.1553812069 -1.2410016394
H -3.8789922025 3.4642292343 -1.5687887293
*
