! pbe def2-sv(p) def2/J RI DEFGRID1 loosescf d4 GCP(DFT/SV(P)) printgap
%output
    printlevel normal
end
* xyz 0 1
C 4.7231878159 1.254704785 -1.4731261975
C 4.8277572198 0.9621802872 0.0094003849
O 3.8967890668 -0.0484575005 0.4370978079
P 2.3201238118 0.1500037035 0.3881115236
S 1.6517967512 1.9102274435 0.9171520718
O 1.8210186256 -0.9902312781 1.3570696796
C 2.2597795936 -2.3686541302 1.2356881903
C 1.1521366246 -3.2633833767 1.7508167457
S 1.7889367276 -0.4986425195 -1.5732195705
C 0.0768549735 0.0473852275 -1.5211631112
S -0.9728162672 -1.14546722 -0.603794566
P -2.5188410924 0.2150546066 -0.1016333193
S -4.1456980742 -0.5348461762 0.6869125705
O -2.7177359862 1.0660280332 -1.4302528679
C -3.7557267351 0.7441855419 -2.3758165826
C -3.4654352621 -0.5366339473 -3.1334178656
O -1.7817115803 1.3469797528 0.736058778
C -1.8264262449 1.3720143757 2.1728521726
C -1.1831027552 0.1500781421 2.7968626529
H 3.7737010999 1.7407478073 -1.6919812633
H 5.5314996885 1.9179708206 -1.7640042621
H 4.7867290182 0.3335694715 -2.0469313997
H 4.6449251528 1.8683861833 0.5948455733
H 5.8004251839 0.5424087625 0.2698819806
H 2.4839030865 -2.5754845465 0.1853148309
H 3.1709348644 -2.4701789803 1.8275678167
H 1.4818555355 -4.2961990175 1.7071730595
H 0.9106326864 -3.0056149214 2.7780287249
H 0.2595697343 -3.1466444274 1.1407541625
H -0.2656194811 0.1039300372 -2.5506416486
H 0.0186192606 1.018412148 -1.0248405584
H -4.7031598046 0.6592843275 -1.8344397094
H -3.7840514792 1.6102746982 -3.0383552207
H -3.4332383288 -1.3778838297 -2.4413794748
H -4.2563157793 -0.7084396716 -3.8566393067
H -2.5145375938 -0.4703694855 -3.6557429727
H -1.2861324689 2.2841479344 2.4323597946
H -2.8728473901 1.4525695783 2.4824247401
H -1.7254368423 -0.748284743 2.5012313724
H -0.1469342431 0.0590730627 2.4779131214
H -1.2146917862 0.2429743616 3.8776357815
*
