! pbe def2-sv(p) def2/J RI DEFGRID1 loosescf d4 GCP(DFT/SV(P)) printgap
%output
    printlevel normal
end
* xyz 0 1
C 3.7735969375 -0.6224352549 -2.7423556698
C 4.1334706994 0.498174448 -1.7890586605
O 3.6527974413 0.2544140249 -0.4546690433
P 2.1023757653 0.1950941948 -0.1053838205
S 1.015333295 1.5339566006 -1.0205860295
O 2.0681746192 0.3905544588 1.4569447707
C 2.8145246041 -0.4027377834 2.4105780148
C 4.1400718403 0.252302289 2.7397318341
S 1.6574232842 -1.8684717776 -0.4074627354
C -0.0338296612 -1.9101190929 0.2301334485
S -1.2575624359 -1.2123239897 -0.9230617977
P -2.300825288 0.0521873532 0.4411611659
S -1.2223279619 0.6820939739 1.9540295078
O -3.5108622477 -0.7777882904 1.0216847063
C -4.7590274378 -1.0684744411 0.3469207478
C -4.575701965 -1.9294829942 -0.8851197171
O -3.0591404142 1.0894651584 -0.4852551242
C -2.4706317968 2.1170303488 -1.3020389243
C -2.1432484056 3.3513008167 -0.487038193
H 4.0900204801 -1.5808961101 -2.3382657387
H 2.695850711 -0.6458212483 -2.8987128331
H 4.2625832177 -0.4522507335 -3.696116162
H 3.7159299297 1.4482156467 -2.1366043905
H 5.2130901576 0.5905839564 -1.6631307332
H 2.1622384491 -0.4476926504 3.285556703
H 2.9614826152 -1.4064325715 2.0012731717
H 3.9752007565 1.2674179565 3.0909942738
H 4.6333573947 -0.3211327328 3.5183694132
H 4.7746272689 0.2833489189 1.8581251386
H -0.0916746049 -1.3441815322 1.1649432191
H -0.2644138031 -2.9608613942 0.3835728438
H -5.3375771209 -1.5849490506 1.1146037013
H -5.2382787238 -0.1211418302 0.0947431496
H -5.5528642567 -2.1851017399 -1.2830751514
H -4.0133045974 -1.3922630031 -1.6462357911
H -4.0415466487 -2.8425724972 -0.6358870881
H -1.5734693966 1.7298897492 -1.7911467677
H -3.2376789062 2.3272008054 -2.0498387193
H -3.0251067712 3.7011551105 0.0431640499
H -1.3624883588 3.1259781605 0.2370490392
H -1.7823414537 4.1299895238 -1.1508551549
*
