! r2scan-3c def2/J RI DEFGRID2 scfconv6 printgap
%output
    printlevel normal
end
* xyz 0 1
C 1.8144621102 0.0816076944 3.3412867086
C 1.1949259223 -0.7049310857 2.2038231875
O 1.8794055572 -0.336078036 0.9939224675
P 1.9569321753 -1.2697248141 -0.2920517133
S 2.1188010257 -3.184130464 0.0814190229
O 3.1279280654 -0.5859553161 -1.1115843904
C 4.5022678232 -1.000737673 -0.956992974
C 5.0349983007 -0.6895446856 0.4253562299
S 0.3278157184 -0.7123572634 -1.5207019354
C 0.5238156156 1.0950920973 -1.467790951
S -0.0775648585 1.8479915357 0.0689351759
P -2.0509503611 1.1104451625 -0.0444257932
S -2.8375737069 0.9980741826 -1.8419556709
O -2.8150758755 1.9951632101 1.0304801223
C -3.0532411653 3.4085960326 0.866047406
C -4.3612511082 3.6668794331 0.1436426229
O -1.9717217568 -0.2528769788 0.7607208645
C -2.7300005257 -1.4343195786 0.4228693934
C -1.9530277403 -2.652532483 0.8778317251
H 1.7295112353 1.1457333233 3.1389542594
H 1.2903673578 -0.1530704346 4.2618379401
H 2.8641200185 -0.1759855777 3.4505732325
H 0.1348586272 -0.4608358218 2.089805544
H 1.300887398 -1.7854712598 2.3494990504
H 4.5630865339 -2.0738780276 -1.162379628
H 5.0293051228 -0.4434820836 -1.7325644441
H 4.8780204016 0.3593890935 0.6628609825
H 4.5196508134 -1.3017723315 1.1642537112
H 6.0963587929 -0.9146935937 0.4604266422
H -0.0633239166 1.4728240471 -2.3041113613
H 1.5739365442 1.3553056266 -1.5649526358
H -3.0804632503 3.7954056748 1.8864367387
H -2.2113056486 3.8547867197 0.3292068564
H -5.1817629656 3.1933849901 0.675570831
H -4.5360500694 4.7367081404 0.0925899793
H -4.3229391468 3.2647420624 -0.8662363693
H -3.6920409509 -1.3659965586 0.9355277536
H -2.8979384348 -1.4472174965 -0.6594027354
H -2.5300053311 -3.543697391 0.6539397081
H -0.9984027791 -2.7162760064 0.3586753054
H -1.76880759 -2.6033471163 1.9472660893
*
