! pbe def2-sv(p) def2/J RI DEFGRID1 loosescf d4 GCP(DFT/SV(P)) printgap
%output
    printlevel normal
end
* xyz 0 1
C 2.4357380453 -0.0944523755 -3.2228958901
C 2.0513622128 -1.2182875505 -2.2825025883
O 2.8274311997 -1.191818921 -1.0729740979
P 2.563485628 -0.2486012166 0.180240862
S 2.7767729075 1.6861882318 -0.0074554007
O 3.6409760055 -0.7936782739 1.1900325228
C 3.7344576081 -2.1827745523 1.6019952253
C 3.2845360592 -2.3283398259 3.0421817129
S 0.6750285188 -0.9327438904 0.8956161919
C 0.0889246321 0.6356706427 1.6189268648
S -1.7060154784 0.7016348852 1.6927106423
P -2.1553350488 0.841064673 -0.3954322266
S -0.6558263926 1.2071238471 -1.6011156994
O -3.2642538559 1.9466324741 -0.5082901813
C -4.3157905271 2.2242456966 0.4515028144
C -5.1262652023 0.9985168767 0.8098287213
O -2.9557627402 -0.4904738151 -0.7354909294
C -2.3009059089 -1.751966545 -0.9578134011
C -3.3342754105 -2.7184334582 -1.4996023897
H 1.9168990608 -0.2248025925 -4.1669684712
H 2.1462374953 0.8656094678 -2.7989288024
H 3.5089318689 -0.0955187733 -3.393188279
H 2.2752010593 -2.1948947618 -2.715811541
H 0.9893064044 -1.1570855884 -2.0303005672
H 3.1320842967 -2.7984719902 0.9309577938
H 4.7890066808 -2.4369211009 1.4863998119
H 2.2223066708 -2.1156513071 3.1337359279
H 3.4708804056 -3.3460635275 3.3699017496
H 3.8389959089 -1.6406576489 3.6746891844
H 0.4761263987 1.4545558078 1.0061830164
H 0.4373921851 0.7148616813 2.6460098512
H -3.8542600087 2.6603989891 1.3408386584
H -4.9206280451 2.9752290196 -0.0590050431
H -4.506859342 0.2835119672 1.347960183
H -5.9536400684 1.2967563619 1.4463421812
H -5.5139835964 0.5274039165 -0.089348214
H -1.4832623681 -1.5977962989 -1.6700142127
H -1.8813505315 -2.101630177 -0.0093567126
H -2.8627408315 -3.6786602812 -1.6799990068
H -4.139476157 -2.8417333611 -0.7816776801
H -3.7460977764 -2.3391981587 -2.4304546318
*
