  31
        -48.53585934
 C          1.5039914031        2.5345938542        1.1552685406
 C          1.7572672657        1.6587142984       -0.0702575865
 C          2.7935688735        0.5448073175        0.2260144028
 C          1.9749196745       -0.7070277415        0.1470571302
 C          2.3108238509       -2.0284605642        0.3390443452
 C          1.3271957101       -2.9977412089        0.1867723291
 C          0.0295183186       -2.6438477901       -0.1371267284
 C         -0.3116650456       -1.3118007242       -0.3335795494
 C          0.6734491445       -0.3445362764       -0.1984629214
 O          0.5065469978        0.9821913674       -0.3884953504
 O         -1.6197754679       -0.9755641708       -0.6922907970
 C         -2.2748466165       -0.0911708930        0.1119353520
 O         -1.8662505787        0.2602690654        1.2026724333
 N         -3.4196761536        0.2888819313       -0.4599670586
 C         -4.3592089667        1.1862876614        0.1728752172
 C          2.1460441944        2.5022520488       -1.2812835046
 H          0.7299310830        3.2645327614        0.9334531570
 H          1.1595918199        1.9175253060        1.9827405573
 H          2.4152833066        3.0513413210        1.4403574519
 H          3.5948357997        0.5395512750       -0.5141948806
 H          3.2381136918        0.6709681286        1.2130390799
 H          3.3192152015       -2.3040812125        0.6027829008
 H          1.5705839710       -4.0377004846        0.3314640580
 H         -0.7403902255       -3.3907368048       -0.2456823266
 H         -3.6384078624       -0.0840893202       -1.3711788819
 H         -5.3167454362        0.6879586158        0.3200809962
 H         -4.4998603617        2.0755570344       -0.4401875749
 H         -3.9465624344        1.4726039628        1.1381390525
 H          3.0669007178        3.0388087498       -1.0748730645
 H          1.3569578323        3.2164022398       -1.5007230859
 H          2.2865244818        1.8640698511       -2.1505403799
