! wb97x-v def2-tzvp def2/J RIJCOSX DEFGRID2 scfconv7 GCP(DFT/TZ) printgap
%output
    printlevel normal
end
* xyz 0 1
C -2.125155304319341 -1.2662839379477064 -0.14491851625465688
C -1.5253658827995853 4.746602650067544e-05 0.41524068758316557
C -2.124661824975389 1.2667027914447857 -0.14471590749464025
I 0.6785400539098518 -0.00037429101338091466 -0.008329602927951516
H -2.0469772191245843 -1.297010604822618 -1.23550929204457
H -1.6610994811521866 -2.1625877483391336 0.27216121771455476
H -3.1911127007000597 -1.2792873741963673 0.11943350416526625
H -1.5211095946921267 -4.680251143724464e-05 1.5053259927280358
H -3.190746821361776 1.2798125100690163 0.11911175117380424
H -2.045951525904991 1.297837792572198 -1.2352556460279265
H -1.6606174093086068 2.162748660788146 0.27292754858918833
*
