! pbe def2-sv(p) def2/J RI DEFGRID1 loosescf d4 GCP(DFT/SV(P)) printgap
%output
    printlevel normal
end
* xyz 0 1
C 5.3553427135 -1.4888584282 -1.35968717
C 4.1725123654 -0.6610322713 -1.8192205249
O 3.7444791279 0.2437386984 -0.7720417807
P 2.549088255 -0.0471329166 0.2136713402
S 2.4273715136 1.4260721997 1.4924136085
O 2.8993141333 -1.498920488 0.756911796
C 1.9804274753 -2.3899379555 1.4146037674
C 1.2211701678 -1.7274362368 2.5453837399
S 0.8612685329 -0.4245962423 -1.0526590063
C 0.2584922847 1.2766035504 -1.1631969265
S -0.8042264076 1.75904644 0.2299592041
P -2.3102948041 0.3214203792 -0.129489092
S -2.7232919311 -0.1069733796 -2.0012197983
O -3.5460360425 0.8192537509 0.7361607057
C -4.5603005558 1.6886237435 0.2047543722
C -4.030194906 3.0795867178 -0.0780142097
O -1.7572051671 -0.867634179 0.7591085761
C -2.1496412792 -2.2386111265 0.5369394516
C -3.6079875798 -2.4680724744 0.8730957466
H 5.0718574264 -2.1197464883 -0.5217306752
H 5.6938540545 -2.1120080206 -2.1815309136
H 6.1651883601 -0.8359134303 -1.046221339
H 3.3293743962 -1.2951372324 -2.1080844084
H 4.4445441326 -0.0083094009 -2.6507046235
H 1.2919300093 -2.7818141197 0.6601454097
H 2.6210045538 -3.1926911421 1.7846735479
H 0.649155173 -2.4752746493 3.0858522838
H 1.9120986203 -1.2415808013 3.2306922828
H 0.5379864435 -0.9721522437 2.1568467491
H -0.3124125667 1.3396179428 -2.0888203419
H 1.0993721471 1.9673338605 -1.1619400709
H -4.9578383909 1.2368512032 -0.7099854608
H -5.328349246 1.6997747222 0.9792276234
H -3.3115136974 3.0453382655 -0.8960120058
H -4.8531485326 3.7287826052 -0.3593520636
H -3.5359372041 3.4822038381 0.802840563
H -1.946598771 -2.4889953075 -0.509389004
H -1.4893927414 -2.8087216094 1.1917215589
H -3.817715048 -2.1284796322 1.8840313982
H -4.2392937307 -1.9153440091 0.1782906712
H -3.8349677868 -3.5263020197 0.7903134729
*
