  17
  -29.5190917300000       0.157187074629336      !mtd2
 C         -0.1784047771       -2.3303647229       -0.0138945423
 C          0.5002731964       -1.0060606694       -0.0047796560
 C          1.8929319401       -0.9594533771       -0.0044409234
 C          2.5893831977        0.2337318877        0.0024431772
 C          1.9050395035        1.4435192917        0.0080413987
 C          0.5297561014        1.4366633259        0.0070228442
 C         -0.1765843232        0.2276659980        0.0013738885
 N         -1.5927231296        0.3218077074        0.0016105754
 O         -2.1018405887        1.4384092562       -0.0274145112
 O         -2.2730468943       -0.6933528024        0.0308469108
 H         -0.8072471386       -2.4456828581        0.8678010626
 H         -0.8405695621       -2.4193346216       -0.8738781193
 H          0.5553081763       -3.1303819764       -0.0396556696
 H          2.4372981076       -1.8907609337       -0.0095656472
 H          3.6677934328        0.2246910498        0.0033704978
 H          2.4410528839        2.3781775583        0.0135604552
 H         -0.0343031822        2.3563706895        0.0119532424
  17
  -29.5190914900000       0.157147159405998      !mtd9
 C         -0.1784013248       -2.3299066806       -0.0456321935
 C          0.5002832804       -1.0058621623       -0.0198876219
 C          1.8929377493       -0.9592987598       -0.0172194440
 C          2.5893922186        0.2336770128        0.0064382269
 C          1.9050528128        1.4432461740        0.0297788961
 C          0.5297684373        1.4364062027        0.0291019916
 C         -0.1765918915        0.2276525235        0.0040620694
 N         -1.5927008126        0.3217553150        0.0049916169
 O         -2.2730129640       -0.6926347472       -0.0449638826
 O         -2.1019246972        1.4375129193        0.0564383221
 H         -0.8078164041       -2.4217403658       -0.9297003750
 H          0.5552810959       -3.1303477285       -0.0415890369
 H         -0.8401129953       -2.4417229444        0.8120546073
 H          2.4372980128       -1.8904557431       -0.0345013947
 H          3.6678039547        0.2246683682        0.0067868161
 H          2.4410823706        2.3777340321        0.0480958777
 H         -0.0342703837        2.3559681839        0.0465265020
  17
  -29.5190914700000       0.157143833594648      !mtd1
 C         -0.1786294827       -2.3301282822       -0.0228630851
 C          0.5002817779       -1.0059785112       -0.0095650999
 C          1.8929451665       -0.9593885502       -0.0089053098
 C          2.5894216977        0.2337674238        0.0033586686
 C          1.9050915592        1.4435003965        0.0150919492
 C          0.5298086392        1.4366729480        0.0140944046
 C         -0.1765654567        0.2277367198        0.0022341642
 N         -1.5926596236        0.3217421204        0.0024718792
 O         -2.2728920740       -0.6938607563        0.0076005371
 O         -2.1019589657        1.4385611011       -0.0020848343
 H          0.5550292860       -3.1303767459       -0.0381696003
 H         -0.8183265454       -2.4435026998        0.8512696005
 H         -0.8304390391       -2.4207563311       -0.8906494435
 H          2.4373097893       -1.8906641010       -0.0181122617
 H          3.6678367410        0.2247180595        0.0033586466
 H          2.4411134390        2.3781160717        0.0249703211
 H         -0.0341641442        2.3563839991        0.0235317514
  17
  -29.5190914600000       0.157142170715368      !gc
 C         -0.1788079913       -2.3300080344        0.0000221933
 C          0.5003084095       -1.0059465824        0.0000987862
 C          1.8929196246       -0.9595119020        0.0000938115
 C          2.5894727177        0.2336900860       -0.0000868523
 C          1.9052234367        1.4434992942        0.0001117675
 C          0.5299026831        1.4367979934        0.0002827037
 C         -0.1765240430        0.2278461194        0.0000856362
 N         -1.5926339731        0.3216482259       -0.0001914116
 O         -2.1020571039        1.4385524502        0.0014973808
 O         -2.2729172259       -0.6939383672       -0.0018383476
 H         -0.8231750173       -2.4323731089       -0.8719826012
 H          0.5547954746       -3.1305118923        0.0015794220
 H         -0.8258306536       -2.4313046290        0.8701724158
 H          2.4372603757       -1.8908319630        0.0002848654
 H          3.6678915410        0.2246523991       -0.0001049561
 H          2.4412974752        2.3781365045        0.0003573418
 H         -0.0339585426        2.3566225167        0.0005200498
  17
  -29.5190913800000       0.157128868315764      !gc
 C         -0.1784600505       -2.3302558089       -0.0162872850
 C          0.5002879225       -1.0060252069       -0.0062196062
 C          1.8929341215       -0.9594585163       -0.0066986665
 C          2.5893967434        0.2337236318        0.0019293307
 C          1.9050642843        1.4434821350        0.0108695422
 C          0.5297722380        1.4366786620        0.0104307732
 C         -0.1765743008        0.2277046103        0.0022028652
 N         -1.5926979724        0.3217514055        0.0018984049
 O         -2.2730716007       -0.6935689196        0.0221330081
 O         -2.1018408400        1.4385379228       -0.0190721039
 H         -0.8116476192       -2.4441838250        0.8624686683
 H         -0.8365056919       -2.4204100167       -0.8793715138
 H          0.5552474200       -3.1304312438       -0.0374060251
 H          2.4372763953       -1.8907567769       -0.0137314416
 H          3.6678080494        0.2247457265        0.0021202671
 H          2.4411054144        2.3781165633        0.0184646342
 H         -0.0342159431        2.3564081029        0.0174475167
  17
  -29.5190913700000       0.157127205595435      !mtd4
 C         -0.1785209274       -2.3302477441       -0.0138942552
 C          0.5002563454       -1.0060306632       -0.0049504346
 C          1.8929228822       -0.9594535292       -0.0056237943
 C          2.5893878012        0.2337180166        0.0017488768
 C          1.9050712437        1.4435152217        0.0090814983
 C          0.5297939180        1.4366935272        0.0084491296
 C         -0.1765761937        0.2276959111        0.0019943693
 N         -1.5926706319        0.3217936125        0.0016612386
 O         -2.1018880316        1.4382686023       -0.0299807225
 O         -2.2729692141       -0.6933606484        0.0325147636
 H          0.5550714619       -3.1302946042       -0.0411108909
 H         -0.8060477313       -2.4459166387        0.8687365966
 H         -0.8420917344       -2.4188569092       -0.8728919190
 H          2.4372275632       -1.8907829542       -0.0119336809
 H          3.6677989078        0.2247204932        0.0018911081
 H          2.4411530506        2.3781281784        0.0155292005
 H         -0.0342760817        2.3563821476        0.0145378490
  17
  -29.5168262100000       1.429736245972406E-002 !gc
 C         -0.1546399634       -2.3477536622        0.1891339437
 C          0.4983623921       -1.0062902607        0.1199757157
 C          1.8915857680       -0.9547034465        0.1102787864
 C          2.5847755040        0.2330736109       -0.0184345519
 C          1.8958686496        1.4310845988       -0.1609266534
 C          0.5199363833        1.4164572078       -0.1686894077
 C         -0.1803982036        0.2140298991       -0.0188710587
 N         -1.5991366091        0.3289200285       -0.0207801496
 O         -2.2814072770       -0.4828191507        0.5858410562
 O         -2.0916777350        1.2745650507       -0.6223865293
 H          0.4045800763       -2.9945870485        0.8595343377
 H         -1.1834081124       -2.2961985996        0.5263602848
 H         -0.1369146570       -2.8019253983       -0.8016825724
 H          2.4361318514       -1.8811335953        0.2052418971
 H          3.6631287345        0.2286001875       -0.0106974715
 H          2.4270383520        2.3629392219       -0.2628959246
 H         -0.0484307092        2.3280699313       -0.2721969516
  17
  -29.5168248500000       1.427680128102092E-002 !gc
 C         -0.1545507138       -2.3424118232       -0.2435319228
 C          0.4983918958       -1.0028987750       -0.1432043362
 C          1.8916123197       -0.9515629015       -0.1322840006
 C          2.5846801780        0.2327530624        0.0256046252
 C          1.8957065472        1.4267751497        0.1980298909
 C          0.5197413719        1.4120233690        0.2046593880
 C         -0.1803748410        0.2136692846        0.0244124418
 N         -1.5991484073        0.3283941885        0.0263525931
 O         -2.2794634974       -0.4665295489       -0.6044579914
 O         -2.0934326283        1.2564133877        0.6533150936
 H         -0.1236063039       -2.8255031354        0.7331032943
 H         -1.1873747742       -2.2822401371       -0.5662364769
 H          0.3963894398       -2.9685791258       -0.9399232225
 H          2.4361400403       -1.8754414605       -0.2495464329
 H          3.6630297036        0.2286516966        0.0174892814
 H          2.4268615848        2.3557790099        0.3233988909
 H         -0.0487669041        2.3207743830        0.3301909347
  17
  -29.5168248300000       1.427649913149756E-002 !mtd14
 C         -0.1487367806       -2.3447784999       -0.2286079951
 C          0.5003206524       -1.0108019649       -0.0552025257
 C          1.8934414997       -0.9561314773       -0.0448209135
 C          2.5840193407        0.2369105337        0.0420967594
 C          1.8926772549        1.4402906130        0.1057957950
 C          0.5168785495        1.4250918985        0.0851409186
 C         -0.1809352509        0.2138314847        0.0174122180
 N         -1.5999748653        0.3249527523        0.0263784830
 O         -2.0917383411        1.3587662599       -0.4072372429
 O         -2.2831956192       -0.5804230982        0.4804411212
 H          0.3983461907       -3.0955358764        0.3350992016
 H         -1.1846916152       -2.3517496869        0.0897760321
 H         -0.1070857096       -2.6247784180       -1.2812442699
 H          2.4398907048       -1.8840506297       -0.1096220645
 H          3.6622863491        0.2329046359        0.0576267548
 H          2.4218879334        2.3764286578        0.1727364025
 H         -0.0534249601        2.3397976013        0.1387387017
  17
  -29.5168246000000       1.427302487120754E-002 !gc
 C         -0.1487774047       -2.3446530312       -0.2292830099
 C          0.5001598006       -1.0106255936       -0.0556944309
 C          1.8933260234       -0.9561153845       -0.0454992860
 C          2.5839610385        0.2368027686        0.0421298879
 C          1.8927087331        1.4402279266        0.1065311134
 C          0.5169041906        1.4251922554        0.0858590407
 C         -0.1808847364        0.2139659991        0.0176708082
 N         -1.6000227261        0.3250277958        0.0266993386
 O         -2.0918263989        1.3576548900       -0.4096239748
 O         -2.2829205475       -0.5796259801        0.4825989887
 H         -1.1884230188       -2.3486278493        0.0768718923
 H         -0.0944029039       -2.6310995938       -1.2795681002
 H          0.3903583681       -3.0927195001        0.3456341007
 H          2.4396283078       -1.8840786134       -0.1110092542
 H          3.6622296128        0.2327540289        0.0575644987
 H          2.4220255370        2.3762647359        0.1740384624
 H         -0.0533213526        2.3399121901        0.1399465242
