! r2scan-3c def2/J RI DEFGRID2 scfconv6 printgap
%output
    printlevel normal
end
* xyz 0 1
C -1.2611525128 0.2721997588 5.816e-07
C 2.2103e-06 -0.5838212332 -1.956e-06
C 1.2611473178 0.2722058221 5.29e-08
H -1.2880304178 0.9085760606 -0.8818198448
H -2.1502667906 -0.3537318645 -3.64521e-05
H -1.2880771331 0.908534782 0.8818505575
H -3.685e-07 -1.228527821 0.8816341025
H 3.06575e-05 -1.2285105321 -0.881646927
H 2.1502353391 -0.3537514961 5.38119e-05
H 1.2880421363 0.9085552922 0.8818383019
H 1.2881021425 0.9085369462 -0.8818578027
*
