  19
        -22.67363762
 C          2.3995460959       -0.0000499508        0.0155054729
 N          0.9863491105        0.0000301045       -0.2954013787
 C          0.3227114676        1.1915146454        0.2073498258
 C         -1.1465433524        1.1865142152       -0.2283487637
 N         -1.8568201490        0.0000572307        0.2175049851
 C         -1.1466752263       -1.1865292105       -0.2281839719
 C          0.3226833104       -1.1915097821        0.2071984697
 H          2.8578965590        0.8858327928       -0.4203185309
 H          2.8579945369       -0.8854001783       -0.4213608521
 H          2.5953987275       -0.0006723689        1.1006128088
 H          0.3798744899        1.2451711304        1.3135058456
 H          0.8282971220        2.0680324181       -0.2028832119
 H         -1.6549783832        2.0697661187        0.1615592235
 H         -1.1921323887        1.2034187882       -1.3198797248
 H         -1.8943023113        0.0001360482        1.2344077472
 H         -1.6550523380       -2.0696505930        0.1621054520
 H         -1.1925495987       -1.2037606050       -1.3196954650
 H          0.3800934713       -1.2454007800        1.3133278055
 H          0.8281546360       -2.0679704632       -0.2033155243
  19
        -22.67188581
 C          1.9246154402       -0.0000569095       -0.7793190799
 N          1.1176683046       -0.0000314159        0.4241876434
 C          0.2979433074        1.1937840710        0.5828599848
 C         -0.9526841586        1.1953283145       -0.3118647858
 N         -1.7662972627        0.0000209049       -0.1252560778
 C         -0.9526720343       -1.1952820652       -0.3118994960
 C          0.2978569512       -1.1937566760        0.5829448503
 H          2.5597249433       -0.8846916811       -0.7673842119
 H          2.5608644539        0.8838866631       -0.7667934292
 H          1.3476419640        0.0005472622       -1.7140323318
 H         -0.0146761413        1.2299873650        1.6329788608
 H          0.9143046286        2.0703880306        0.3775495186
 H         -1.5669661182        2.0712481481       -0.0970415559
 H         -0.6600580420        1.2315344985       -1.3654149915
 H         -2.1287880070       -0.0000117076        0.8253843328
 H         -1.5669448795       -2.0712734025       -0.0972535042
 H         -0.6599523661       -1.2313719540       -1.3654523209
 H         -0.0149364429       -1.2298334695        1.6330191232
 H          0.9141510264       -2.0704631102        0.3778283688
  19
        -22.67143156
 C          2.3957641227       -0.0000470621       -0.0457761773
 N          0.9877244493        0.0000357258        0.2910245823
 C          0.3173046686        1.1867635124       -0.2135460371
 C         -1.1394309292        1.1883884873        0.2405096425
 N         -1.7945072578        0.0000914346       -0.2787194960
 C         -1.1395486739       -1.1884283449        0.2403341995
 C          0.3172909348       -1.1867834517       -0.2133774425
 H          2.8619487369       -0.8851194184        0.3833109230
 H          2.8618688094        0.8856378070        0.3821747712
 H          2.5708891101       -0.0007239505       -1.1334658463
 H          0.8267645890        2.0679830619        0.1819304314
 H          0.3485362268        1.2246345758       -1.3171990751
 H         -1.1602794496        1.2250471054        1.3433289929
 H         -1.6469019962        2.0707326649       -0.1533627520
 H         -2.7728836085        0.0000934045       -0.0093352423
 H         -1.1607335961       -1.2253794961        1.3431918510
 H         -1.6469513810       -2.0706325859       -0.1539981548
 H          0.8266173872       -2.0678332609        0.1823346759
 H          0.3488274310       -1.2249336208       -1.3169663937
  19
        -22.66975731
 C          1.9502661412       -0.0001342089        0.7075624529
 N          1.1001751925       -0.0000122643       -0.4658701376
 C          0.2718669363        1.1866807541       -0.5983027246
 C         -0.9370621670        1.1961973398        0.3465206937
 N         -1.7270235860       -0.0000039528        0.0994587493
 C         -0.9369644560       -1.1960959224        0.3465948256
 C          0.2718427405       -1.1866279985       -0.5983951487
 H          1.4099606974       -0.0008613427        1.6648325642
 H          2.5847459044        0.8843574473        0.6733057453
 H          2.5854159049       -0.8841246993        0.6726053534
 H          0.8894817170        2.0696561428       -0.4267664553
 H         -0.0970623292        1.2068465638       -1.6271342131
 H         -0.5883718111        1.2574853646        1.3940635365
 H         -1.5555158205        2.0716052199        0.1412069162
 H         -2.5539134044        0.0000380425        0.6878028562
 H         -0.5881726655       -1.2572350082        1.3941158303
 H         -1.5553378042       -2.0715967395        0.1414834144
 H          0.8894507604       -2.0696759969       -0.4271625143
 H         -0.0972684961       -1.2065075352       -1.6271669787
  19
        -22.66836274
 C          1.9321156085        0.0004340654       -0.7854241130
 N          1.1126603459       -0.0002238625        0.4217101983
 C          0.2939897685        1.1917948333        0.5913871450
 C         -0.9500464461        1.1946511404       -0.3128559416
 N         -1.7654576179        0.0001458489       -0.1298844006
 C         -0.9505409679       -1.1947234548       -0.3127029629
 C          0.2937499962       -1.1921026952        0.5912443421
 H          2.9854431110        0.0101042954       -0.4932147492
 H          1.7419550937        0.8773654661       -1.4048273991
 H          1.7553282267       -0.8858241685       -1.3951586760
 H         -0.0254971007        1.2164653141        1.6395757198
 H          0.9112854253        2.0712392149        0.4031215219
 H         -1.5660996150        2.0718753144       -0.1083729662
 H         -0.6469331332        1.2222740540       -1.3643103934
 H         -2.1339996640        0.0002815158        0.8184174190
 H         -1.5668986901       -2.0715809449       -0.1074134941
 H         -0.6477751684       -1.2230206225       -1.3641706099
 H         -0.0253481837       -1.2170118801        1.6395069815
 H          0.9106798838       -2.0717256015        0.4026010167
  19
        -22.66680239
 C          2.3473644528       -0.0182526751        0.2275279696
 N          0.9030482258       -0.0171251285        0.2795339333
 C          0.3530083343        1.2375356934       -0.2126923555
 C         -1.1887204984        1.1447155345       -0.2609080272
 N         -1.6881321445        0.0128581742        0.4964239898
 C         -1.1857316121       -1.2245716886       -0.0786847800
 C          0.3178631790       -1.1412315554       -0.4324484428
 H          2.7215964653        0.8217496787        0.8107021844
 H          2.7348000031        0.0687640129       -0.8006937552
 H          2.7188181273       -0.9434836215        0.6644562185
 H          0.6690435887        2.0239942105        0.4777933822
 H          0.7501346307        1.4840891145       -1.2150330038
 H         -1.6368783397        2.0557206632        0.1377149338
 H         -1.5299513370        1.0199084317       -1.2924347602
 H         -1.3398153348        0.0932842603        1.4474099268
 H         -1.3684575055       -2.0262902604        0.6364278617
 H         -1.7671014517       -1.4321483331       -0.9823300995
 H          0.8313074927       -2.0517497083       -0.1197546938
 H          0.4548676183       -1.0330347035       -1.5241678573
  19
        -22.66669594
 C          2.3416776379        0.0022775197        0.2483087724
 N          0.8964686437        0.0018226106        0.2794665774
 C          0.3402198288        1.1879176091       -0.3516181058
 C         -1.1965359194        1.1927403432       -0.1611028699
 N         -1.6722462289       -0.0013301975        0.5126575393
 C         -1.1971626790       -1.1834584553       -0.1816011744
 C          0.3443843890       -1.1993074628       -0.3267546486
 H          2.7073905098        0.8919980549        0.7579856697
 H          2.7433536687       -0.0061075194       -0.7780267676
 H          2.7078295936       -0.8790696121        0.7721140687
 H          0.7873423464        2.0613353713        0.1272040028
 H          0.5975379367        1.2217357608       -1.4268679115
 H         -1.5082126626        2.0577346375        0.4246258995
 H         -1.6955819662        1.2409432299       -1.1332704852
 H         -1.2895256525       -0.0103264766        1.4540000648
 H         -1.5394437315       -2.0602778575        0.3685870513
 H         -1.6689305246       -1.1941214842       -1.1683141028
 H          0.7693440757       -2.0592463472        0.1952814846
 H          0.6314069736       -1.2734613309       -1.3924340678
