! wb97x-v def2-tzvp def2/J RIJCOSX DEFGRID2 scfconv7 GCP(DFT/TZ) printgap
%output
    printlevel normal
end
%cpcm
    smd true
    smdsolvent "water"
end
* xyz 0 1
C 1.4804063165121921 0.5794815664779133 2.3234294175492063e-05
C 0.6695718302041737 -0.7040774422373155 -0.00010284844865173946
C -0.8072590399499578 -0.5151118763794871 0.00019262209141116264
O -1.3696379009322852 0.5695117606346219 0.00024008386387211684
H 2.5500014585073365 0.35415438878805156 -0.0008496662415782599
H 1.2599189798268697 1.1832442258635585 0.8852292415289422
H 1.2586716959629718 1.184201634085124 -0.8842184872766523
H 0.8970880984867676 -1.3409902912315543 -0.8685337945148431
H 0.8974175446174334 -1.3413905109972926 0.8679391682628683
H -1.4065911127419126 -1.448215669229559 0.00012198634420326449
*
