! pbe def2-sv(p) def2/J RI DEFGRID1 loosescf d4 GCP(DFT/SV(P)) printgap
%output
    printlevel normal
end
* xyz 0 1
C 5.7357599043 0.4324149637 0.1241598891
C 4.8359165254 0.1234707124 -1.0541270356
O 3.6201068311 0.9159477393 -1.0077082263
P 2.286354104 0.444835141 -0.3276828666
S 0.8394265869 1.730619741 -0.6111384477
O 2.7311342348 0.2566112674 1.190877942
C 1.8243890607 -0.0592594465 2.2625798174
C 1.9080602065 -1.5308900879 2.6202169658
S 1.9754316593 -1.5197026584 -1.1161404521
C 0.1939066265 -1.4838655505 -1.378780857
S -0.7542781934 -1.6864923286 0.1729034003
P -2.1286000664 -0.0995402629 0.0243273347
S -2.3886307215 0.6174231997 -1.7893583482
O -1.6257645059 0.8148969162 1.2132586455
C -2.4201044935 1.8409204446 1.8470257939
C -2.720259155 2.9903953803 0.9078264828
O -3.4636120691 -0.6869763449 0.6623311003
C -4.4232720568 -1.4466273547 -0.0964364291
C -5.8026856052 -1.1699297921 0.4682671018
H 6.6623922416 -0.1224369604 0.015247197
H 5.9557492651 1.4960978394 0.1553585692
H 5.2533990731 0.1478720731 1.0548107378
H 4.5649262907 -0.9352057727 -1.083818407
H 5.3023349782 0.4113994791 -1.9978556912
H 2.1484444547 0.5684853798 3.09521488
H 0.8077011584 0.2286922567 1.9745545214
H 2.9331677764 -1.795773431 2.862413798
H 1.2743293766 -1.7212433808 3.4801927841
H 1.5678817569 -2.1500692506 1.7933611329
H -0.0264921578 -2.3285117432 -2.0263208173
H -0.1043324198 -0.5399555203 -1.842655491
H -3.3385664213 1.3837653801 2.2219048317
H -1.7946288939 2.1639270749 2.681028813
H -3.3746372552 2.6617646056 0.1018999245
H -3.2047867891 3.7918500081 1.4561550836
H -1.7961105709 3.3596003894 0.4663006649
H -4.3550906817 -1.1468945212 -1.147924808
H -4.158113231 -2.502260474 -0.0021503145
H -6.0526547132 -0.1188119178 0.3513132227
H -6.5314711996 -1.7703735243 -0.0660362563
H -5.8300656885 -1.425040515 1.5237420775
*
