! pbe def2-sv(p) def2/J RI DEFGRID1 loosescf d4 GCP(DFT/SV(P)) printgap
%output
    printlevel normal
end
* xyz 0 1
C 3.2482578249 -3.2194689697 0.5443246159
C 2.9282428211 -1.7938921126 0.9635761437
O 2.734556492 -0.946513002 -0.1863011243
C 1.5692198498 -0.946173679 -0.7824977275
O 0.612556266 -1.6174425339 -0.431425893
C 1.5163796133 0.001074859 -1.9589756918
C 0.3038703123 0.9219672517 -1.8386677718
H 0.2214963443 1.5488677112 -2.7317795878
C 0.3354830943 1.8375977723 -0.6254838387
O -0.668493401 2.3283074032 -0.1498662121
O 1.5507756969 2.0444693817 -0.1921297921
C 1.7240318766 2.8819932261 0.9707072801
C 3.2059447589 3.154423621 1.1276412251
S -1.284737048 0.0154419118 -1.8064860097
P -1.5429699122 -0.3972367069 0.2497382132
S -0.4205826931 -0.0272467075 1.8140555235
O -2.9399492485 0.4228652884 0.3177802154
C -3.6392491711 0.5888948722 1.5505806949
O -2.0064891268 -1.9224547371 0.3425052647
C -2.7691944538 -2.556578658 -0.6960234431
H 4.1111730036 -3.2303665652 -0.1158259723
H 3.4641253576 -3.8101410291 1.4283336806
H 2.3970783353 -3.6581040666 0.0284508187
H 3.7631676283 -1.3374755221 1.4946635364
H 2.0253352067 -1.7571498619 1.5806974242
H 1.4121681118 -0.5895880933 -2.8706287004
H 2.4346210421 0.585680857 -1.9898067566
H 1.1450441072 3.7985657305 0.8237797261
H 1.3103113001 2.3442459084 1.8304686858
H 3.3633232708 3.7568021687 2.0157348674
H 3.7436960623 2.2169321465 1.2306104094
H 3.5835880929 3.686778481 0.2599843289
H -3.0109999971 1.1220550856 2.2662926358
H -3.9192688973 -0.3811928497 1.9653661541
H -4.5211429071 1.1758926756 1.3077341286
H -2.0967367042 -2.8692564496 -1.4937561443
H -3.5240042206 -1.8746625992 -1.0904492085
H -3.2351485712 -3.4193942995 -0.226182089
*
