! pbe def2-sv(p) def2/J RI DEFGRID1 loosescf d4 GCP(DFT/SV(P)) printgap
%output
    printlevel normal
end
* xyz 0 1
C 2.2704151804 -3.8736963396 -0.9579586518
C 2.53548934 -3.5308420991 0.4995051957
O 2.7042612642 -2.1079998554 0.66128572
C 1.6384775847 -1.3627877106 0.8304762436
O 0.5063839261 -1.8043881491 0.9116789438
C 1.9783227861 0.1056081281 0.918580259
C 0.8856311969 0.9370643729 0.264508824
H 0.6798122728 0.5780492596 -0.7529922193
C 1.2417607448 2.4147135811 0.1925202816
O 2.2546773224 2.88200557 0.6552238838
O 0.3058912723 3.0932994458 -0.4354343522
C 0.492419858 4.5149372313 -0.6012592937
C 1.3013775494 4.8134493731 -1.8530802469
S -0.7077730029 0.8102338419 1.1708612227
P -1.6769868412 -0.6467446862 -0.0396654477
S -0.8217107136 -1.1945125499 -1.7242275222
O -2.299272686 -1.7574635775 0.8963189867
C -1.9456230305 -3.1423954513 0.9028026242
O -3.0794586603 0.0865705539 -0.3012376185
C -3.1324223236 1.2714458021 -1.0988463598
H 1.3578561465 -3.3889375005 -1.301524652
H 3.0953153449 -3.5360114331 -1.5787952658
H 2.1589605354 -4.947727461 -1.0617920164
H 3.4762347472 -3.9585332411 0.8453822816
H 1.7081945885 -3.8611145488 1.1335094197
H 2.9356047106 0.2860391534 0.4290453197
H 2.0735035085 0.3867012939 1.9701052892
H -0.5186483341 4.9149115331 -0.6753294137
H 0.9942127386 4.9041550069 0.2885360975
H 2.3085005958 4.415994053 -1.7519693464
H 0.8279886006 4.3634989472 -2.7214054524
H 1.3589910515 5.8877193431 -1.9931516935
H -1.29322632 -3.3368700125 1.7516834364
H -1.4365239397 -3.4123656963 -0.0234896719
H -2.8799239952 -3.6920104121 0.9964683398
H -2.540677327 2.0660331022 -0.6404173938
H -4.1818783343 1.5507417336 -1.1378063914
H -2.7542783449 1.0638387565 -2.1017645236
*
