! pbe def2-sv(p) def2/J RI DEFGRID1 loosescf d4 GCP(DFT/SV(P)) printgap
%output
    printlevel normal
end
* xyz 0 1
C 3.8639305089 -3.7673717456 0.4342662293
C 2.8572849847 -2.6871506873 0.7764096154
O 2.8948732728 -1.697612347 -0.274200996
C 1.8927255487 -0.8726009898 -0.3981618279
O 0.9236082769 -0.8723361105 0.3505831154
C 2.0339991778 0.0768373917 -1.5557781112
C 0.8494149134 1.0267864074 -1.6022798515
H 0.8872458127 1.6614240825 -2.4907779048
C 0.7520242486 1.9166065748 -0.3735185587
O 1.5643170161 1.9014419948 0.5249669708
O -0.2965081981 2.7047869566 -0.4391666851
C -0.5221245622 3.6479014742 0.6254647492
C 0.1905131968 4.9595395851 0.3382117861
S -0.7473948881 0.1400418743 -1.8345741374
P -1.4115896525 -0.5707437862 0.0446941509
S -1.4233457967 -2.4680834171 0.5748581793
O -1.186298618 0.4813891997 1.2377705532
C -0.4686063442 0.2102480322 2.4393453914
O -2.90517482 -0.1313153768 -0.3867743211
C -4.0596451694 -0.5015297851 0.3671744912
H 3.8695948198 -4.511095707 1.2238802135
H 3.5962282552 -4.2455300623 -0.5031554845
H 4.8547746452 -3.3340070061 0.3396987547
H 3.1055402869 -2.1870702871 1.7171144147
H 1.8386053515 -3.0819105301 0.8493260448
H 2.0943862897 -0.4988052356 -2.4802909751
H 2.9652996811 0.6326480161 -1.4295154341
H -1.6046150823 3.7755191184 0.6496626024
H -0.1725191088 3.2084239638 1.5635104075
H -0.1231027338 5.3506281139 -0.6255573474
H -0.0570588172 5.6765053481 1.1139418523
H 1.2672302388 4.8069542431 0.3281724932
H -1.0183355249 0.7041755857 3.2379610533
H 0.541570451 0.6117145915 2.3564931276
H -0.4225743345 -0.8659119999 2.6145162477
H -4.147433315 0.1319033906 1.2497333858
H -3.9912159186 -1.5492657165 0.6698423291
H -4.9071463832 -0.3536095193 -0.2975154074
*
