! r2scan-3c def2/J RI DEFGRID2 scfconv6 printgap
%output
    printlevel normal
end
%cpcm
    smd true
    smdsolvent "water"
end
* xyz 0 1
C 5.3644083348 -2.2160082621 -1.0294148323
C 4.0697391211 -2.9531788851 -1.3323022284
O 3.1240700385 -2.0802518984 -1.9821281331
C 2.3431336192 -1.3324818647 -1.2344481538
O 2.3238062796 -1.3479722057 -0.0203234579
C 1.4587656933 -0.4301038094 -2.0693814426
C 0.4233682093 0.2318174931 -1.1715380093
H -0.1106191118 1.0222218664 -1.7092338351
C 1.1177151559 0.8702795664 0.0217937086
O 2.132039275 1.5190191604 -0.0971978063
O 0.4605915767 0.6914159217 1.1479312699
C 1.0136031778 1.252232287 2.3547089668
C 0.6864127957 2.7302995647 2.4854080015
S -0.8174097049 -1.0085837603 -0.6433844499
P -2.1591834716 0.2764386604 0.3244012708
S -2.1072471583 2.1911807238 -0.13185759
O -3.589437276 -0.3778449282 0.0058145459
C -4.2281074302 -0.1980616754 -1.2624599869
O -2.0368484907 -0.1154788745 1.8579072025
C -2.91233583 0.4896958159 2.824623685
H 5.1761287816 -1.4025581713 -0.3316607705
H 6.0753318245 -2.9044515878 -0.5848334834
H 5.7843392843 -1.8055437767 -1.9434048495
H 3.6163452565 -3.3362007516 -0.4137822775
H 4.2282536869 -3.7612230747 -2.0462290003
H 0.9879348484 -1.0071181789 -2.8639657978
H 2.0950412581 0.3368069902 -2.5166437356
H 0.5568568673 0.6643773053 3.151236441
H 2.0948581394 1.0904185869 2.3321376802
H -0.3862721633 2.8881421004 2.4014951361
H 1.0284221078 3.0885682825 3.4503551212
H 1.1811258802 3.2946357292 1.6982318621
H -5.2631781523 -0.4960064045 -1.1162390523
H -3.7486076893 -0.8278851491 -2.0109771099
H -4.1716668003 0.8497281687 -1.5637390825
H -2.9437082326 1.5713961459 2.6811276868
H -2.4896507218 0.245495032 3.7958338248
H -3.9150248867 0.0760636373 2.7252139239
*
