! pbe def2-sv(p) def2/J RI DEFGRID1 loosescf d4 GCP(DFT/SV(P)) printgap
%output
    printlevel normal
end
* xyz 0 1
C 1.3681388314 -3.79896262 -2.0365370811
C 2.0649098356 -3.6780970614 -0.690262113
O 1.7832096598 -2.4046424418 -0.0762017371
C 2.5113013686 -1.3658347883 -0.436374064
O 3.4411490069 -1.4078198885 -1.2083249356
C 2.0156791812 -0.0906351137 0.2205896478
C 1.0931311189 0.639530567 -0.7618981469
H 1.6406824977 0.8592019968 -1.6828163984
C 0.5738591766 1.9384251105 -0.1690620252
O -0.607664921 2.1495764335 0.0107510585
O 1.5439822434 2.757175492 0.1257677331
C 1.2087221702 4.0330968805 0.7176121242
C 0.8352008795 5.0465224419 -0.3508926991
S -0.3335021577 -0.372396045 -1.2831742273
P -1.6123182941 -0.2019722753 0.376468807
S -0.9771342578 0.1808379724 2.204045474
O -2.8305984444 0.6367144145 -0.2000104205
C -3.9214241682 1.0365633699 0.6420246034
O -2.3010561755 -1.6586391323 0.3439092976
C -1.6420059675 -2.7985603272 0.9012935569
H 1.7692124285 -3.0648488928 -2.7311818159
H 1.5328566017 -4.7935787893 -2.4369662269
H 0.3003823745 -3.6256975497 -1.9301932754
H 3.1478673127 -3.7732752575 -0.8075291967
H 1.6934890456 -4.4143727377 0.0228239173
H 2.865701741 0.5558628171 0.440385852
H 1.4786120385 -0.3360216616 1.138365905
H 0.3854414505 3.8822260411 1.4212843162
H 2.1150020827 4.3247513898 1.2476877541
H 0.6569346005 6.0085795039 0.1178106438
H 1.6407340019 5.1436721527 -1.0733664913
H -0.0698642841 4.733358849 -0.8666656595
H -4.5775173299 0.185807584 0.8247856828
H -4.4417298008 1.8176811505 0.0936374284
H -3.5434291219 1.4245131893 1.5899074974
H -1.4283085548 -2.6227333299 1.957102631
H -0.709977173 -2.9918205997 0.3704877586
H -2.33533674 -3.6265969266 0.781498796
*
