! pbe def2-sv(p) def2/J RI DEFGRID1 loosescf d4 GCP(DFT/SV(P)) printgap
%output
    printlevel normal
end
* xyz 0 1
C 4.1504697138 -0.8577930454 -2.3087191566
C 4.4382105767 0.237758321 -1.3030636088
O 3.5458529263 0.2066803718 -0.1738053825
P 1.9820602421 0.4882747462 -0.2995646145
S 1.5124309378 1.8880139396 -1.5780103973
O 1.6244549565 0.8682907101 1.1862287769
C 2.1629509286 0.1761285794 2.3420368676
C 1.6629221753 0.8990085586 3.5735679187
S 1.183377952 -1.4545779976 -0.6895167659
C -0.0588903987 -1.0367291796 -1.9444425247
S -1.7812776233 -1.313340832 -1.4417994329
P -1.8258696795 -0.2960227842 0.4371905262
S -1.0000073078 -1.1511695687 1.9885731402
O -3.3730394281 0.0311047527 0.5860141687
C -4.4404451382 -0.9151441537 0.3828840196
C -4.2740923369 -2.1795413933 1.1986060486
O -1.1933250304 1.1288658197 0.1776951652
C -1.8419638396 2.1393683128 -0.6379557819
C -2.573912331 3.1302367556 0.2416337115
H 3.1986819017 -0.6702309675 -2.8031803788
H 4.9375991421 -0.8682393567 -3.0557680783
H 4.1077704041 -1.8253375694 -1.8148993922
H 4.3590939109 1.2221119063 -1.7746085168
H 5.4247351148 0.1208041432 -0.8522547639
H 1.8071475788 -0.8576238041 2.3199861447
H 3.2521289293 0.1930697255 2.2745500221
H 2.0803399359 0.4248657298 4.4557066233
H 1.9616202838 1.9429733343 3.5427155216
H 0.5783821799 0.8405341472 3.6172227572
H 0.0920563567 -1.6995896375 -2.7933679189
H 0.0799002472 0.0096433516 -2.2325665178
H -5.3321300801 -0.3616773085 0.6825872547
H -4.4884153001 -1.1494749632 -0.6843389137
H -4.1622792483 -1.940319085 2.2536228235
H -5.1452737422 -2.8120856855 1.0622473881
H -3.3871949873 -2.7222063158 0.8734328201
H -1.028563163 2.6192662762 -1.1867661986
H -2.5223711201 1.6499736883 -1.339281015
H -3.0031487872 3.9072436389 -0.3830822198
H -3.364937205 2.6305430581 0.7952320423
H -1.8805520954 3.5790290604 0.9479061714
*
