! pbe def2-sv(p) def2/J RI DEFGRID1 loosescf d4 GCP(DFT/SV(P)) printgap
%output
    printlevel normal
end
* xyz 0 1
C 5.2971414308 -2.8712745306 -0.0108787414
C 4.3479522483 -1.8550526352 0.5947710037
O 3.1038189746 -1.9084815318 -0.1344448635
C 2.3614456685 -0.8298014078 -0.2039964327
O 2.6477481397 0.2400157761 0.2980601379
C 1.0816451686 -1.0740918255 -0.9680917069
C 0.4533603577 0.250641451 -1.3827197815
H 0.91863897 0.661591435 -2.2795850861
C 0.5038539541 1.287205807 -0.2757749142
O -0.057494626 1.1173643883 0.7908541058
O 1.0680073094 2.3964127752 -0.6699443147
C 1.1921308932 3.4931191151 0.2600498448
C 2.6204002434 3.578970616 0.7704897267
S -1.3192905042 0.069468267 -1.7854843803
P -2.220028696 -0.2562472652 0.0963642382
S -1.5092189843 -1.547610585 1.4022463663
O -2.6767093152 1.186900218 0.5875906829
C -2.7999905415 1.5227716657 1.9760267703
O -3.6570270388 -0.7388943334 -0.43480075
C -3.8693853819 -2.0587449113 -0.9450023582
H 5.5045922132 -2.6223385195 -1.0473856775
H 6.2259164203 -2.8704369298 0.5497263105
H 4.8532439495 -3.8611427362 0.0308917376
H 4.741908071 -0.8360579805 0.5346779285
H 4.127233736 -2.0877165996 1.6404737185
H 0.4195998272 -1.6113781912 -0.2781929022
H 1.2635618535 -1.7155833395 -1.8284483123
H 0.9167574079 4.3803026828 -0.3124063325
H 0.4872012439 3.3338378732 1.0805703717
H 2.6987589594 4.3883097661 1.4885942616
H 2.8944185663 2.6417417645 1.2492576901
H 3.3016331417 3.7584607368 -0.0557987233
H -3.6813490821 1.0419576976 2.3987333141
H -2.8990899785 2.6049417553 2.0042607255
H -1.9063524333 1.2060979903 2.5154399435
H -4.9470568001 -2.2000938708 -0.9543251018
H -3.393843485 -2.7919588031 -0.2906030324
H -3.4627806783 -2.1369927034 -1.9527507357
*
