! pbe def2-sv(p) def2/J RI DEFGRID1 loosescf d4 GCP(DFT/SV(P)) printgap
%output
    printlevel normal
end
* xyz 0 1
C 3.239027338 2.1028470625 -1.769625728
C 2.0559658976 1.1635468156 -1.6753139841
O 1.4462325458 1.2441093453 -0.3606346725
P 1.7333353106 0.1909479998 0.7724942414
S 1.0854219151 0.7096154987 2.5417195437
O 3.3166997716 0.0567680203 0.6802362185
C 4.0466462434 -0.7816610588 1.5973921439
C 5.5213698481 -0.4748214937 1.4335439484
S 1.1283529193 -1.7410828828 0.0780417928
C -0.2369959384 -2.0857188109 1.215042155
S -1.8698265536 -2.1372264904 0.4209597216
P -1.8564514025 -0.2687165866 -0.5958597017
S -1.0447189226 -0.2498344286 -2.3830570529
O -1.2319782207 0.6870912158 0.5021132183
C -1.7502811062 2.0047684449 0.8037353611
C -1.5316470073 2.9637831166 -0.3458248489
O -3.387056087 0.1427892271 -0.592038085
C -4.3142890056 -0.3416463165 -1.5850985891
C -5.4501179443 0.6555741222 -1.6923230253
H 4.0141601388 1.8031990583 -1.0694678586
H 3.6332487245 2.0693333665 -2.7803570962
H 2.928669479 3.1181450121 -1.5385958293
H 2.3474017587 0.1281834286 -1.8702780334
H 1.2601206629 1.4424319881 -2.3693674445
H 3.701373223 -0.5662829777 2.6139255298
H 3.8261366214 -1.8258415321 1.3579164108
H 5.7139344677 0.5688369253 1.6656711882
H 6.0914567939 -1.1026949246 2.1101584597
H 5.8313901553 -0.6734988764 0.4116917617
H -0.2314626189 -1.3277881309 2.0036250042
H -0.0859758954 -3.0819531059 1.62385697
H -2.8089483935 1.9080127278 1.0483841856
H -1.1859322665 2.2990342265 1.6910806267
H -0.4698529635 3.042287913 -0.5672874872
H -2.0470057482 2.6022242827 -1.235156323
H -1.9186834433 3.9417324912 -0.0778312479
H -3.7821739846 -0.4498673205 -2.5364954796
H -4.670682418 -1.3219310377 -1.2596508206
H -6.1737225115 0.2896516275 -2.4131689751
H -5.9332796723 0.7741749694 -0.7268250592
H -5.0751191505 1.6206915308 -2.021464267
*
