! pbe def2-sv(p) def2/J RI DEFGRID1 loosescf d4 GCP(DFT/SV(P)) printgap
%output
    printlevel normal
end
* xyz 0 1
C -0.7249381556 -0.0138210415 -1.21736e-05
O 0.6847608682 0.0650737059 -2.2376e-06
H -1.095709952 -0.5250173701 -0.8924947502
H -1.0923976361 1.0106129278 -7.36292e-05
H -1.0959033192 -0.5247381851 0.8926140554
H 1.053001125 -0.8291025456 0.0001349044
*
