! pbe def2-sv(p) def2/J RI DEFGRID1 loosescf d4 GCP(DFT/SV(P)) printgap
%output
    printlevel normal
end
* xyz 0 1
C 1.4712836696 -0.5040218765 -2.8538001315
C 2.4960386009 0.1683364298 -1.9625431178
O 2.8330358583 -0.6813117795 -0.8528945168
P 2.2935611233 -0.4778636639 0.629298852
S 2.3438893849 1.3711956121 1.2959629737
O 3.1500944798 -1.5567444887 1.4090407669
C 4.5743910152 -1.7452989638 1.2604502783
C 5.3641534969 -0.5024607089 1.6135563042
S 0.427840981 -1.4583209353 0.7638783684
C -0.4673854308 -0.2832337558 1.8423136789
S -2.2185449004 -0.1986782776 1.4374886881
P -2.0244704183 0.5422532619 -0.556809971
S -0.6134429435 1.8568689307 -0.8806830731
O -3.4996784423 1.0131157742 -0.915661756
C -3.9883693555 2.3358118743 -0.6307856132
C -4.0865044344 2.6092756629 0.8559500749
O -1.8426817838 -0.7399174863 -1.4558993971
C -2.7433625997 -1.875610356 -1.4403467083
C -3.7618217824 -1.7677881224 -2.5563620292
H 1.3119688918 0.1101476783 -3.7343123407
H 1.8249986933 -1.4866380553 -3.1528635306
H 0.5233930737 -0.6128461394 -2.3303374114
H 2.126614112 1.1285296469 -1.5866622061
H 3.43690034 0.3262986095 -2.4936433004
H 4.7912525149 -2.5657525128 1.9465894049
H 4.7728402022 -2.0561388093 0.2325311022
H 5.1308472585 0.3019473571 0.9169959191
H 5.1146024149 -0.1678604134 2.6177598749
H 6.4259007791 -0.7216980456 1.560047924
H -0.0072204377 0.7031156944 1.7276180222
H -0.4086115618 -0.6268532628 2.8720296435
H -3.3234747941 3.0595152098 -1.1122947262
H -4.9688700052 2.3583956267 -1.1086295383
H -4.644219231 1.8184214618 1.3511451621
H -3.0904764045 2.6632343374 1.2929310472
H -4.5883208005 3.5588233118 1.0124025597
H -2.0902721964 -2.7401441259 -1.5730841408
H -3.2292741258 -1.9290219018 -0.4623701341
H -4.3708780016 -2.6662273605 -2.5665776442
H -4.4005850298 -0.9026816485 -2.4011791118
H -3.257399761 -1.6649795722 -3.5131179521
*
