! pbe def2-sv(p) def2/J RI DEFGRID1 loosescf d4 GCP(DFT/SV(P)) printgap
%output
    printlevel normal
end
* xyz 0 1
C 4.3673794029 -0.3238171831 -2.0574530554
C 4.3911051687 0.7711175741 -1.0101838201
O 3.6280632849 0.4273584352 0.1577021348
P 2.0488086333 0.2610127665 0.1386055029
S 1.1047141609 1.5855449522 -0.9618253924
O 1.6673547373 0.4178933483 1.6610412582
C 1.86379812 -0.5656317483 2.7108169777
C 3.2988792528 -1.0302333608 2.820338723
S 1.7425444536 -1.7836468216 -0.3565814881
C -0.007527191 -1.6849573725 -0.7889583002
S -1.0264502516 -1.0713606675 0.5918874226
P -2.2075547992 0.3930110311 -0.4057046426
S -2.0768770125 0.4496664196 -2.356857662
O -1.9095117455 1.7821634185 0.2734550135
C -1.5323151329 2.0245909282 1.6479031165
C -2.4809775023 1.3883876025 2.6401324937
O -3.684270006 0.1068420191 0.1222856794
C -4.5857241122 -0.8006670064 -0.5313724461
C -4.1021806012 -2.2361404572 -0.4833052781
H 5.0634779584 -0.0745056662 -2.8519441572
H 4.6475747616 -1.2771668186 -1.6168685116
H 3.368597103 -0.4113336169 -2.4829156331
H 3.9934822358 1.7045587699 -1.4213789245
H 5.3974723371 0.9360176815 -0.6226607706
H 1.5423839372 -0.0345035115 3.6077577196
H 1.1889080591 -1.4043086812 2.5166357539
H 3.5873198943 -1.5825075463 1.9284147887
H 3.9630996855 -0.1779003717 2.9361379873
H 3.3929446022 -1.6804400246 3.6845724354
H -0.3128156754 -2.7005528062 -1.0287813828
H -0.1530624868 -1.0162045498 -1.64239569
H -0.5081607114 1.6645350031 1.786318447
H -1.5415749699 3.1137395313 1.716263138
H -3.4987399811 1.717653966 2.4474677184
H -2.4401598816 0.3030798254 2.5597182902
H -2.1898075758 1.6807704175 3.6442346087
H -5.5217661069 -0.6719504504 0.0138839872
H -4.7108035618 -0.4741149149 -1.5686041964
H -3.213386698 -2.3458940512 -1.1032571412
H -3.8637711769 -2.5238302215 0.5374271589
H -4.879790442 -2.8869660107 -0.8698992347
*
