! wb97x-v def2-tzvp def2/J RIJCOSX DEFGRID2 scfconv7 GCP(DFT/TZ) printgap
%output
    printlevel normal
end
%cpcm
    smd true
    smdsolvent "water"
end
* xyz 0 1
C 1.4282755489268346 0.524833636327839 -0.00013946062674883693
O 0.5816122297036833 -0.6603666411272404 -0.0001703599820328485
C -0.7442905684540678 -0.4934376993740933 0.000782751900422414
O -1.3384801327690943 0.5652556936235615 0.0009327739954449483
H 0.8278515977060413 1.4341693457564582 -0.004334815526316226
H 2.052736243108974 0.4719201989317482 -0.89328506138531
H 2.0470175178452688 0.4764960773766657 0.8972744054283383
H -1.2348447417180959 -1.4767757240205643 -0.0008215284588786013
*
