! pbe def2-sv(p) def2/J RI DEFGRID1 loosescf d4 GCP(DFT/SV(P)) printgap
%output
    printlevel normal
end
* xyz 0 1
C 2.5197779968 0.9051117533 -2.5328453084
C 1.9321818389 -0.4397761893 -2.1543712596
O 2.5921640445 -1.0043414521 -1.0099696025
P 2.2752778348 -0.6645902817 0.5110358067
S 2.5497030726 1.1719276775 1.1544048263
O 3.1831422949 -1.7395869492 1.235724661
C 4.5176945721 -1.4370096548 1.6886618635
C 5.4665061863 -1.2308088029 0.5271452143
S 0.385665117 -1.5461326728 0.8324086874
C -0.3530760692 -0.3117966174 1.9627053614
S -2.1141535186 -0.1085793464 1.6476256506
P -1.9741610945 0.6099154517 -0.3592930041
S -0.5298654792 1.8793439204 -0.7130146366
O -3.4445934925 1.1493984487 -0.6150074948
C -3.919492759 2.3520192259 0.0262463386
C -5.1807542526 2.7914537087 -0.6889771719
O -1.8898580219 -0.6495256623 -1.297758557
C -2.8501202812 -1.7375635046 -1.2690264578
C -3.8940870604 -1.5542830676 -2.3506115936
H 2.0560740701 1.2508011953 -3.4511011872
H 2.3230521428 1.6371879787 -1.7515592122
H 3.5932805797 0.8200954115 -2.6775563044
H 2.0926152055 -1.1792889853 -2.9413465879
H 0.8597424083 -0.3506605264 -1.9523386804
H 4.4755629996 -0.540887819 2.3161585987
H 4.7915122661 -2.3034986974 2.2915689
H 5.1670832211 -0.3470602076 -0.0355263189
H 6.4744448386 -1.0865706388 0.9032606406
H 5.4433336695 -2.0922585072 -0.1349646765
H 0.1649231813 0.6415834155 1.8196003484
H -0.2630133026 -0.6610996601 2.988154717
H -4.1128530807 2.1234163839 1.0775976776
H -3.1351787736 3.113425878 -0.0369747147
H -5.5581290546 3.6944009745 -0.2205256343
H -4.9660676524 2.993626827 -1.7345759685
H -5.9347699775 2.0123973115 -0.6261819597
H -2.2489140585 -2.6334383485 -1.4342300057
H -3.3073819056 -1.7794383341 -0.2768088955
H -3.415145802 -1.4776896255 -3.3227891046
H -4.5622163502 -2.4097474625 -2.3458780218
H -4.467146424 -0.6489741658 -2.169802494
*
