! pbe def2-sv(p) def2/J RI DEFGRID1 loosescf d4 GCP(DFT/SV(P)) printgap
%output
    printlevel normal
end
* xyz 0 1
C 3.3161526291 -3.4106880045 0.1048833324
C 2.9539696186 -2.0574998023 0.6958057484
O 2.7194089504 -1.0833801533 -0.3388844247
C 1.5538199138 -1.0724979435 -0.9460712769
O 0.6321476076 -1.8242144014 -0.6962600621
C 1.4754538224 0.0112392223 -2.0009336101
C 0.3294861444 0.9748760036 -1.6937474085
H 0.2336900569 1.6991890984 -2.5089406668
C 0.5062705416 1.7506849755 -0.4009367384
O -0.4397867699 2.0811113075 0.2871259351
O 1.7585797425 2.0111669846 -0.1428589936
C 2.0717331028 2.736626264 1.0651536338
C 1.8924775522 4.2323491145 0.8677613374
S -1.3020832898 0.1555488201 -1.6344658174
P -1.6124206601 -0.2838590944 0.4301479814
S -0.2574384959 -0.459044623 1.8369022328
O -2.7398225006 0.7132750262 0.9252325426
C -3.9444342268 0.9820004428 0.1880767751
O -2.5208132953 -1.6001411199 0.2789492655
C -2.0232477331 -2.9102542098 0.0098345569
H 3.5506012993 -4.0986511976 0.9102409946
H 2.4790697885 -3.8077949105 -0.4646151236
H 4.1787053115 -3.3141292023 -0.5488285772
H 3.7788848177 -1.6405009145 1.2728643261
H 2.0583389374 -2.1228007464 1.321121115
H 1.2790904136 -0.4624356986 -2.9637397624
H 2.4189088982 0.554634955 -2.0263677292
H 1.4292955812 2.3624991287 1.8679529304
H 3.1118057304 2.4787076996 1.2627959757
H 0.8467479375 4.4631344638 0.6772672826
H 2.2061311015 4.7484963752 1.7689208823
H 2.493471896 4.5743419837 0.0297977254
H -4.5386754713 0.0734188765 0.1047853732
H -3.6990641288 1.3628987084 -0.803530749
H -4.4665939879 1.7366425641 0.7704707272
H -2.8607162624 -3.5799624101 0.1892145529
H -1.1935352762 -3.1410358812 0.6779862342
H -1.6823842517 -2.9763271162 -1.0222614032
*
