! pbe def2-sv(p) def2/J RI DEFGRID1 loosescf d4 GCP(DFT/SV(P)) printgap
%output
    printlevel normal
end
* xyz 0 1
C 4.1186425384 -1.5519010946 -1.8782043153
C 4.6553833124 -0.5480766385 -0.8786695245
O 3.6573703004 0.4124256297 -0.4537055155
P 2.4002736758 0.1291317423 0.457425543
S 1.8580103672 1.8124374708 1.297341571
O 2.9170189667 -1.0457919727 1.3904617756
C 2.0731361623 -1.9168782175 2.166361577
C 1.0969687949 -1.1602567617 3.0426332401
S 0.9322148858 -0.843787903 -0.7657270785
C 0.4376375596 0.6078648654 -1.7200550493
S -0.7630347689 1.6768874515 -0.8767969855
P -2.284691232 0.2193201467 -0.7131452096
S -2.5404320512 -0.9756874371 -2.2373803113
O -3.5943029735 1.0643773786 -0.4279440347
C -3.6710674874 2.2894415373 0.3365043493
C -3.2083397478 2.1183736272 1.7682268652
O -1.8775334051 -0.5125996731 0.649828059
C -2.1441188816 -1.9091700172 0.8711991487
C -3.6126255974 -2.1443315328 1.1599321713
H 4.9425724915 -2.1593760111 -2.23992731
H 3.3795207283 -2.2007821028 -1.4142146309
H 3.6583773889 -1.0424961735 -2.7213058542
H 5.4288913659 0.0814880817 -1.3217021557
H 5.0471445536 -1.0487446909 0.007888527
H 1.5431069473 -2.578604914 1.4752836507
H 2.7808084998 -2.4940758035 2.7642981497
H 0.3882476905 -0.6073673351 2.4266345206
H 0.5558654914 -1.8609971466 3.6707825962
H 1.6260755236 -0.4484126736 3.6718812736
H -0.0102797101 0.2298205651 -2.6388619093
H 1.3074493605 1.229470813 -1.9243998527
H -3.0761991575 3.0510505943 -0.1749930117
H -4.7295112735 2.5500664575 0.2831388385
H -3.7678237799 1.3236636184 2.2545566601
H -2.1473032847 1.8761589206 1.7975199527
H -3.3676050648 3.0487208244 2.3045802749
H -1.8277796353 -2.4705537852 -0.0138378438
H -1.5156339455 -2.1730067819 1.7225381592
H -3.7821325386 -3.2017331429 1.3358856164
H -3.9227708753 -1.5781283643 2.0340568064
H -4.2078999704 -1.8262884186 0.3040520524
*
