! pbe def2-sv(p) def2/J RI DEFGRID1 loosescf d4 GCP(DFT/SV(P)) printgap
%output
    printlevel normal
end
* xyz 0 1
C 2.9188367697 2.1593954388 -1.6760462304
C 2.0448507097 0.9233028678 -1.6910483531
O 1.3177437665 0.8029431333 -0.4381176094
P 1.7996647135 -0.1431324832 0.73630497
S 0.9149988667 0.3137596119 2.4213262097
O 3.3736564843 0.0703136818 0.7187859842
C 4.3389084548 -0.8643773074 1.2381847169
C 4.0529177465 -1.2791884827 2.6656349781
S 1.6284279027 -2.1318268451 -0.0277379732
C -0.0459555131 -2.0932427981 -0.7230116589
S -1.3426223928 -1.5499340923 0.4356229986
P -1.9038564229 0.2696185564 -0.4698184614
S -1.3962291165 0.5455393001 -2.344925689
O -1.3785999686 1.3230214665 0.5826548017
C -1.1750261193 2.7123472746 0.2658550825
C -2.4813387899 3.438801703 0.0260889443
O -3.472252835 0.3428700693 -0.2088170554
C -4.4415663567 -0.1881566012 -1.1290597468
C -4.3924567468 -1.7000057498 -1.2165417018
H 3.6645404277 2.0831501532 -0.8890241076
H 3.4143713562 2.2511119014 -2.6373945263
H 2.3135034347 3.0445790249 -1.4996424489
H 2.6389723424 0.0195725854 -1.8466874604
H 1.2701298872 0.9917652091 -2.458733015
H 4.3539513535 -1.737766642 0.5800688484
H 5.284234772 -0.3242453983 1.1619725205
H 3.9784187854 -0.4054301456 3.3086951137
H 3.1101320477 -1.8226863787 2.7164378877
H 4.8517788321 -1.9222670066 3.0204056754
H -0.2582130563 -3.1253702377 -0.9919657028
H -0.0721030314 -1.4456210334 -1.6036012562
H -0.6436427191 3.0978483592 1.137965426
H -0.5262303051 2.7711922916 -0.6141849105
H -2.2835556161 4.498957738 -0.0978832085
H -2.9588707987 3.058474632 -0.8762983288
H -3.1513801127 3.2901584037 0.8689877552
H -5.3953298354 0.1614548106 -0.7314302512
H -4.262393598 0.2582612926 -2.1127846711
H -4.4500219315 -2.138296205 -0.2232791183
H -5.2277677096 -2.0497843538 -1.8146667829
H -3.4631858943 -2.0176849035 -1.6873850511
*
