! r2scan-3c def2/J RI DEFGRID2 scfconv6 printgap
%output
    printlevel normal
end
%cpcm
    smd true
    smdsolvent "water"
end
* xyz 0 1
C -2.4145651533 -0.7021647705 -0.0002817522
C -2.4145541499 0.7021008813 0.0001233643
C -1.2349087954 1.3922662335 0.0002862087
C 8.5299e-06 0.7099202358 5.8176e-05
C 1.2348863694 1.3923559436 -0.0001963986
C 2.4144599443 0.7021651846 -0.0002541217
C 2.414573967 -0.7021754754 0.0001382856
C 1.2349416724 -1.3923185662 0.000252975
C 3.51019e-05 -0.7098856179 6.78037e-05
C -1.2348624471 -1.3922544635 -0.0001756081
H -3.3559393114 -1.2312815552 -0.0007709745
H -3.3560010205 1.2310797643 0.0003925702
H -1.2295035962 2.4728046522 0.0007174741
H 1.2294632101 2.4728385301 -0.0005783117
H 3.3558844535 1.2311600628 -0.0005577868
H 3.3559577477 -1.2310554956 7.42557e-05
H 1.2293873846 -2.4728504422 0.0008651987
H -1.2294280865 -2.4728097441 -0.0003680439
*
