! r2scan-3c def2/J RI DEFGRID2 scfconv6 printgap
%output
    printlevel normal
end
* xyz 0 1
C 4.5656053705 -1.7122979275 -0.6761225822
C 4.6416769865 -0.2540682527 -0.2718108439
O 3.4874139832 0.1664312211 0.4750808782
P 2.0415704952 0.2914170734 -0.1775016518
S 2.0408588357 0.9561690275 -2.0255852089
O 1.2898809015 1.1524809487 0.9191432272
C 1.27828795 2.5921101809 0.906562801
C 2.6536204896 3.1781490917 1.1425876151
S 1.2010386859 -1.6025425972 0.1815029419
C 0.0060694644 -1.7110359068 -1.1971366911
S -1.6953119128 -1.9389818456 -0.6377576124
P -2.0141870186 0.0127645099 0.1399055399
S -1.4337751939 1.5000495634 -0.9911675931
O -1.3060557749 0.0386156374 1.547795521
C -1.4542845229 -0.9705070694 2.5773727187
C -2.6107595449 -0.6493137828 3.5006085375
O -3.5583533405 0.0153490908 0.5164327581
C -4.5875352849 0.3714313787 -0.4241553452
C -4.7242821065 -0.6424602269 -1.5412866074
H 4.3566586065 -2.3348471342 0.1901370317
H 3.7738715905 -1.853118702 -1.4105903149
H 5.5111601893 -2.0107602546 -1.117281941
H 4.7303813522 0.3840485644 -1.1570307391
H 5.4740591764 -0.0668031611 0.4078553738
H 0.868392327 2.9258655525 -0.0530104729
H 0.579620622 2.8498605281 1.7043455628
H 3.0876992581 2.7628066099 2.0484109443
H 3.3043037072 2.9481578376 0.2996594609
H 2.5699583912 4.2561763853 1.2390545405
H 0.2489513411 -2.5931772428 -1.783601115
H 0.0834452992 -0.8022018114 -1.800486624
H -1.5870203994 -1.9461744712 2.1010091282
H -0.4984931143 -0.948362807 3.1049353605
H -2.489596735 0.3458411443 3.9199387007
H -3.5507887233 -0.6895897792 2.9572517548
H -2.6301168659 -1.3775283801 4.3054776943
H -5.4900113532 0.4217637368 0.1866785751
H -4.3566801731 1.3619082891 -0.8283794725
H -4.8207590124 -1.6453572219 -1.1332021455
H -5.6036834052 -0.4061641987 -2.1317740789
H -3.84841798 -0.6082987281 -2.187078154
*
