! pbe def2-sv(p) def2/J RI DEFGRID1 loosescf d4 GCP(DFT/SV(P)) printgap
%output
    printlevel normal
end
* xyz 0 1
C 2.4122664063 -3.6070471731 -1.048322895
C 1.7110622045 -2.3608600786 -0.5483433848
O 2.7050757986 -1.3304608537 -0.3865579235
P 2.3024129186 0.1792423229 -0.084231582
S 1.0522799375 0.9788267552 -1.3631360311
O 3.6873321045 0.9164275885 -0.0783366351
C 4.7828185408 0.5735150716 0.8118664182
C 5.7185053223 -0.4255083771 0.1642046874
S 1.6924960817 0.146562528 1.9659031944
C -0.0326425868 0.6323962921 1.7919015714
S -1.0499598167 -0.6672745446 1.0178816619
P -2.3007644185 0.5397064019 -0.2233241809
S -2.1546724517 2.4746987326 0.013369793
O -3.7297820694 -0.1269407738 0.0062518426
C -4.3460558269 -0.374203802 1.2831415117
C -4.5234445815 0.8852909373 2.1052150149
O -2.0256478604 0.1437926531 -1.7193131814
C -2.0290920513 -1.2200793541 -2.2061249915
C -3.3340161729 -1.533055164 -2.9089463379
H 3.1575906535 -3.9286999976 -0.3269917982
H 1.680175117 -4.3962225673 -1.1832460049
H 2.901927401 -3.404426384 -1.9965571302
H 1.2274051892 -2.5329442864 0.418436494
H 0.9596757968 -2.0069406488 -1.2619294889
H 5.2817551462 1.5264005402 0.9963845811
H 4.3685922215 0.1860465748 1.7466468518
H 6.5629775792 -0.5971274027 0.8243461261
H 5.2042639242 -1.3653368189 -0.0146293641
H 6.0779920989 -0.0368507684 -0.7846664367
H -0.1185420312 1.5383149282 1.1864769278
H -0.392831104 0.7999492421 2.8041420176
H -5.3094957471 -0.8147069057 1.0205245792
H -3.7372717298 -1.1066989564 1.820909353
H -5.0647848231 0.6479787683 3.015327644
H -3.5541412366 1.3077909127 2.3653864538
H -5.0759818176 1.6319671817 1.5400482792
H -1.1831561576 -1.2635166336 -2.8958558129
H -1.8569215229 -1.8990415049 -1.3652363311
H -3.4983467298 -0.824069491 -3.7157227872
H -3.2851710217 -2.5377773323 -3.3167265482
H -4.1632553564 -1.4653489203 -2.2100178642
*
