! pbe def2-sv(p) def2/J RI DEFGRID1 loosescf d4 GCP(DFT/SV(P)) printgap
%output
    printlevel normal
end
* xyz 0 1
C 5.027926847 0.1444618303 -2.0986791235
C 4.0081110587 -0.9688705775 -2.2108639939
O 3.2847137247 -1.1607413106 -0.9785159452
P 2.2258521783 -0.1161700155 -0.4330524116
S 1.1663401486 0.7416405511 -1.8535161541
O 3.1441447597 0.8335873287 0.440480258
C 2.7112242061 2.005019083 1.1550685404
C 2.4723761643 1.6820690995 2.6160753247
S 1.2254382784 -1.3723770935 0.9248104963
C -0.0785687829 -1.9719470929 -0.2083532023
S -1.7328607686 -1.8752717196 0.5054001443
P -2.0781198216 0.2262753271 0.3070318474
S -0.8271451998 1.4769141016 1.1389334672
O -3.5985489269 0.3408163698 0.7493916212
C -4.1534886548 -0.218494171 1.9559103225
C -3.3636555057 0.1482333272 3.1940941695
O -2.1399742999 0.5108891501 -1.2404340401
C -3.0355952537 -0.1600770187 -2.1598208697
C -4.2644220603 0.6870858798 -2.419270873
H 5.6798239328 -0.028523898 -1.2466165749
H 5.6199159768 0.1844762913 -3.0076860027
H 4.5195628959 1.098314758 -1.9640145742
H 4.480266215 -1.9360080148 -2.3877126894
H 3.2858521604 -0.7521240695 -3.0047307903
H 3.5296249299 2.7176902629 1.0352348861
H 1.8054888247 2.405110639 0.6892787998
H 3.350341656 1.2028949056 3.0397388028
H 2.263266331 2.602258657 3.1513859285
H 1.6165114212 1.0188793048 2.7202430221
H 0.0965880254 -3.0246711699 -0.413056279
H -0.0385735904 -1.372162593 -1.1217016244
H -5.162856258 0.1953519006 1.9899714168
H -4.1986199655 -1.3041310816 1.8339707323
H -2.3649914101 -0.2844984861 3.1446338348
H -3.2650591547 1.2282520694 3.2764474505
H -3.871778553 -0.2357552472 4.0727183938
H -2.443485765 -0.2904229978 -3.0682058316
H -3.3061772484 -1.1360650896 -1.7467572484
H -4.8280873409 0.8243776978 -1.5003516215
H -3.9691137871 1.6622953458 -2.7969014876
H -4.8888462693 0.1905157909 -3.1553175857
*
