! pbe def2-sv(p) def2/J RI DEFGRID1 loosescf d4 GCP(DFT/SV(P)) printgap
%output
    printlevel normal
end
* xyz 0 1
C 3.2610785476 -0.3525831341 -3.2876520752
C 2.0059928015 -0.7080117291 -2.5178464681
O 1.8957374497 0.101251279 -1.3252207193
P 2.3790341935 -0.4349142476 0.0857761446
S 4.202131414 -1.1380852848 0.2251807585
O 1.2576447526 -1.5306229703 0.401197256
C 1.4457847827 -2.5181523174 1.4296166144
C 1.3782738392 -1.9060632962 2.8140368958
S 1.9683648208 1.2792702839 1.236126863
C 0.30037268 1.7136586121 0.6679918765
S -0.9765217709 0.5625732037 1.2607289492
P -2.2555587716 0.7082739653 -0.4374910698
S -1.3497399985 0.6688881732 -2.1745867735
O -3.0514941138 2.0629539835 -0.265131992
C -4.2270102155 2.2619383284 0.5583054613
C -3.9697653912 2.0013523827 2.0273463647
O -3.3741555274 -0.3937312395 -0.2063343695
C -3.2317110944 -1.7465480634 -0.6765549998
C -2.1194206179 -2.4857016691 0.0373430906
H 4.1437228018 -0.5830295199 -2.6943447475
H 3.2895867984 -0.9275715002 -4.2075838968
H 3.2641141182 0.7075815159 -3.5252037731
H 2.000437959 -1.7640676624 -2.2359337879
H 1.1027739533 -0.4769333569 -3.0876822035
H 0.6397912612 -3.2337243797 1.2631792063
H 2.4156062527 -3.0003633957 1.2689381345
H 0.4510384768 -1.3516443477 2.9388940019
H 1.4336765097 -2.694033745 3.5578491503
H 2.2167289074 -1.2246258005 2.9577208842
H 0.2796690305 1.7281005343 -0.4228314064
H 0.1138435049 2.7011669227 1.0831332042
H -4.4836330978 3.3062199255 0.3730921768
H -5.0186181845 1.6123615377 0.1806031638
H -3.7278060126 0.9532592784 2.1897441019
H -3.1457862823 2.6120091266 2.3872737137
H -4.8657006807 2.2485006709 2.5885292271
H -4.2067291485 -2.1938294515 -0.4774539963
H -3.0464886596 -1.7202707206 -1.754964548
H -2.1253277478 -3.5259763637 -0.2728357642
H -1.1571151298 -2.0455324885 -0.221099289
H -2.2563552349 -2.4273509057 1.1143235159
*
