! pbe def2-sv(p) def2/J RI DEFGRID1 loosescf d4 GCP(DFT/SV(P)) printgap
%output
    printlevel normal
end
* xyz 0 1
C 3.2351251985 -0.8667754669 -3.167014891
C 4.0937375432 -0.7352298489 -1.9273093615
O 3.5586408072 0.200646022 -0.9708204837
P 2.07250367 0.1966555241 -0.408928229
S 0.7112587892 1.0100534989 -1.5586319042
O 2.2249937282 1.066012318 0.8949747889
C 3.228160132 0.882288474 1.9244993427
C 2.6766275384 0.0782874723 3.0861316037
S 1.8525122807 -1.8483838964 0.1537344075
C 0.2015871718 -1.8360369932 0.8962078068
S -1.1383711785 -1.6062982678 -0.3152880144
P -1.9521797132 0.1933042034 0.4294842256
S -0.9247285324 1.1976163773 1.7544352649
O -3.3003492919 -0.4457579604 1.0243734175
C -4.0494774974 0.1815070387 2.0804203809
C -4.789541775 1.4131943722 1.5976186105
O -2.398302319 1.0958038102 -0.7913909115
C -3.336982504 0.6894147577 -1.8153717223
C -2.6409882396 -0.0005236697 -2.9714242521
H 3.0772922714 0.1072714696 -3.6243115519
H 3.7259428431 -1.5244885406 -3.8769942996
H 2.2628514271 -1.2843317346 -2.9081819755
H 5.0763839941 -0.3230406419 -2.1638020316
H 4.2042566232 -1.702094561 -1.4289140687
H 4.1076143288 0.4084992819 1.4846043755
H 3.4713753865 1.9002627294 2.2330226978
H 2.5478873497 -0.9657226365 2.8113697809
H 3.3699818961 0.140279515 3.9187400076
H 1.7163614906 0.4895859551 3.3911192507
H 0.137075989 -1.0371048521 1.6397252137
H 0.0815246799 -2.8164038834 1.3495942818
H -4.734279631 -0.5982098956 2.4165144651
H -3.3566200666 0.4433450231 2.8864842023
H -4.0754526521 2.1594670001 1.2489799286
H -5.4627936067 1.1606762027 0.7823972205
H -5.3621063542 1.8323933578 2.4190348943
H -4.0946686748 0.042874438 -1.3645249559
H -3.7875517111 1.6311736364 -2.1339173516
H -3.3337636847 -0.0875631534 -3.8023227626
H -1.7761065835 0.5829473775 -3.2794178168
H -2.3014623526 -0.9931954784 -2.6844558316
*
