! pbe def2-sv(p) def2/J RI DEFGRID1 loosescf d4 GCP(DFT/SV(P)) printgap
%output
    printlevel normal
end
* xyz 0 1
C 4.2855572261 -2.0515834229 0.9443043236
C 2.8024416362 -2.0352257326 0.6322189581
O 2.5736237575 -1.0650091343 -0.4077459842
C 1.4147877513 -1.0668528356 -1.0203490156
O 0.5072469912 -1.8401371273 -0.7768626857
C 1.3236592502 0.0092070851 -2.0813252644
C 0.1769548524 0.9708361986 -1.7744237412
H 0.066698752 1.6857658553 -2.5959889193
C 0.3521012254 1.763559381 -0.4908305026
O -0.5932280046 2.2297430491 0.1163638337
O 1.6032638257 1.9014142791 -0.1537727793
C 1.9036232655 2.5980429309 1.0738008753
C 3.4105217776 2.6328816297 1.2227669737
S -1.4509791108 0.1432263032 -1.6950476235
P -1.71728061 -0.267473425 0.3779045051
S -0.3090321221 -0.3612964513 1.7362405147
O -2.8277608034 0.7414865012 0.8838958064
C -4.0438916721 1.0151808881 0.1674403705
O -2.618624892 -1.5902407171 0.2928481487
C -2.1338068756 -2.9011055579 -0.0007460497
H 4.6048260771 -1.0736391039 1.2909186538
H 4.4771541652 -2.7838051872 1.7213190711
H 4.8517107146 -2.3132252316 0.0553403483
H 2.2026444518 -1.7454891065 1.5014242285
H 2.447867785 -3.0083339609 0.2778575658
H 1.1216974176 -0.4723008015 -3.0390871932
H 2.2647174805 0.5558339709 -2.1170545462
H 1.4671539191 3.5995809258 1.0174957495
H 1.4210354603 2.0542526371 1.8928641472
H 3.8565169249 3.1810181588 0.3986682961
H 3.6647735567 3.1181908683 2.1587568154
H 3.8002634536 1.6194622098 1.2264522375
H -4.6378406603 0.1065228593 0.0838111887
H -3.8123448716 1.407346814 -0.8230245828
H -4.5580915712 1.7634797361 0.7647575821
H -1.2775341962 -3.1355520118 0.6311611182
H -1.8358043295 -2.9642247537 -1.0461250575
H -2.9653516217 -3.5687580279 0.2108306212
*
