! pbe def2-sv(p) def2/J RI DEFGRID1 loosescf d4 GCP(DFT/SV(P)) printgap
%output
    printlevel normal
end
* xyz 0 1
C 4.95279598 -1.3247251008 0.0121989734
C 4.0584960974 -1.8217552743 -1.1027858884
O 3.1641309969 -0.8058235745 -1.6181684445
P 2.1085602408 0.0392998068 -0.8070538123
S 0.8356931746 0.7960350461 -2.0898376507
O 3.0443660117 1.0174632127 0.0145392289
C 2.6591045881 2.0523273506 0.9344606639
C 2.2209444506 3.3090561961 0.2102942745
S 1.2998674201 -1.2999873218 0.6418804843
C -0.1390837531 -1.8700206245 -0.3203197541
S -1.6840638803 -1.8634727551 0.6167969187
P -2.1018074377 0.228949511 0.5847322999
S -0.7792616416 1.4520607801 1.3411060282
O -3.5654430447 0.2787042475 1.2023889567
C -3.9777169321 -0.3631485127 2.4245231554
C -3.0681554086 -0.0455590658 3.5923259815
O -2.3668443053 0.6138725771 -0.9171189326
C -3.3357697659 -0.04878444 -1.7683318536
C -2.9898630707 0.2903413377 -3.2033071359
H 5.4760610851 -0.4238314359 -0.2969066688
H 4.3637619515 -1.1045177936 0.9001954798
H 5.6771880311 -2.0969055122 0.2527453048
H 3.4532409391 -2.6661305407 -0.7628364705
H 4.6350156835 -2.1087497088 -1.983483892
H 1.8618274467 1.6880466384 1.5869852163
H 3.5640814478 2.2284127305 1.5192734234
H 2.0426494696 4.0943317001 0.9375157553
H 2.9866737014 3.6274204911 -0.4923855932
H 1.2963760912 3.1263580136 -0.3341772491
H 0.0215186837 -2.9062061285 -0.6062836486
H -0.2355607614 -1.2201187854 -1.1958077353
H -4.9863918644 0.0207695411 2.5869679409
H -4.013351032 -1.4409602124 2.2435635233
H -3.4691051304 -0.4959846306 4.4945265326
H -2.0702861695 -0.443368355 3.4102686502
H -2.987826896 1.0303324132 3.7300882366
H -3.2855051241 -1.1265054968 -1.5857269171
H -4.3263577721 0.3182043088 -1.4933527753
H -3.6683597259 -0.2317274847 -3.8698467669
H -3.0735704198 1.3612045394 -3.3641138857
H -1.9657401659 -0.0034153283 -3.4220672275
*
