! pbe def2-sv(p) def2/J RI DEFGRID1 loosescf d4 GCP(DFT/SV(P)) printgap
%output
    printlevel normal
end
* xyz 0 1
C 4.9002318159 -0.521598487 -1.4663153722
C 3.7112701071 -1.4169849754 -1.1838239514
O 2.9423560132 -0.9237136618 -0.0748509844
P 1.9707784957 0.341431066 -0.2043821162
S 1.3330750038 0.6447616164 -2.0317809712
O 2.7198430682 1.6457185119 0.2873376801
C 3.0833666611 1.9793689677 1.6485876227
C 4.1006126632 1.0204803712 2.2301271511
S 0.7150227521 -0.1147931514 1.4329213792
C 0.1494095402 -1.7644860319 0.9402339122
S -0.7342032155 -1.792004531 -0.6552943491
P -2.1119939638 -0.2434054463 -0.3005457706
S -1.6860798875 1.6762987148 -0.3557334591
O -2.7791734229 -0.7202142826 1.0628891115
C -3.0617726986 0.1114990811 2.2071051929
C -2.3074522461 -0.3906509881 3.4220857889
O -3.0896268138 -0.7201173797 -1.4600107239
C -4.0822085203 0.1450569114 -2.0391133744
C -5.2020683691 0.4425318185 -1.0621859396
H 5.4669805845 -0.9243265355 -2.299718535
H 4.5485397717 0.4769333195 -1.7261972045
H 5.5418971857 -0.4556295633 -0.5918324783
H 4.0189006286 -2.4170302303 -0.8752939234
H 3.0599429003 -1.4794693304 -2.0616266717
H 3.4862910565 2.9895248858 1.5572707306
H 2.1724363933 2.0014134427 2.2522422108
H 4.9891192645 0.9914896664 1.6049359771
H 4.3746872748 1.3599108906 3.2241104893
H 3.680605512 0.0197540177 2.2995674279
H -0.5150879202 -2.1050531986 1.7316457545
H 1.0034282593 -2.4284092035 0.8289527462
H -2.7867504388 1.1443786051 1.9673961793
H -4.1411023264 0.0452404737 2.3590793285
H -2.6223217199 0.1818822646 4.2883854869
H -2.5280138886 -1.4410051986 3.5900899398
H -1.2355415217 -0.2617562728 3.2855733329
H -3.5935028698 1.0708299602 -2.3614121153
H -4.4372530102 -0.4071497762 -2.9104532641
H -5.615792948 -0.4850558389 -0.6749778343
H -4.8175095641 1.0369515638 -0.2337216171
H -5.9812374231 1.004284228 -1.5676611158
*
