! r2scan-3c def2/J RI DEFGRID2 scfconv6 printgap
%output
    printlevel normal
end
* xyz 0 1
C 4.2444868095 -3.7716358076 -1.000892352
C 2.7323030798 -3.7317958843 -0.8479189453
O 2.3034709715 -2.4814783562 -0.2733561166
C 2.1263925234 -1.4520364959 -1.0758486731
O 2.2520831546 -1.4825121009 -2.2796444738
C 1.7295188587 -0.2095794076 -0.3001075703
C 0.6654385251 0.5633429835 -1.0707207685
H 1.0081235601 0.7064889565 -2.1016559475
C 0.3512782169 1.917515862 -0.4643927461
O -0.7864901713 2.2880938435 -0.2541118689
O 1.4310340263 2.6134815267 -0.2424345923
C 1.3046453482 3.9056107792 0.3922964019
C 1.4614397648 3.7667032658 1.8972564028
S -0.888111495 -0.3741014452 -1.2329059352
P -1.8275928944 0.0415864888 0.6374811972
S -0.7322664731 0.4565493137 2.2051337317
O -3.0595975113 1.0090315179 0.446027091
C -4.0083488733 0.8656272225 -0.6271660401
O -2.6300409206 -1.3428254088 0.822368802
C -1.9479247991 -2.5599882153 1.1304136369
H 4.7225766732 -3.5847195345 -0.0432737179
H 4.5419770433 -4.7494536123 -1.3648883235
H 4.5685785686 -3.0166693398 -1.7135051137
H 2.3840281521 -4.4872615499 -0.1437493726
H 2.241436139 -3.8550173584 -1.8174907157
H 2.6126041371 0.4253179337 -0.1964333293
H 1.3833783728 -0.4923760401 0.6952879489
H 2.10696459 4.5028172173 -0.0412629654
H 0.3289437805 4.3267818447 0.1369464617
H 0.6899885633 3.110809732 2.2974726305
H 2.4328563687 3.3456725749 2.1387410334
H 1.3679409312 4.743637052 2.3593657041
H -4.7356210071 1.6571070311 -0.4661638718
H -4.4803317441 -0.1142900997 -0.5799053804
H -3.5047614399 0.9964928377 -1.584862321
H -2.723971407 -3.2728948302 1.3965272008
H -1.267256412 -2.4060565126 1.9697296188
H -1.39142465 -2.9054067428 0.2587859213
*
