! pbe def2-sv(p) def2/J RI DEFGRID1 loosescf d4 GCP(DFT/SV(P)) printgap
%output
    printlevel normal
end
* xyz 0 1
C 5.3026262442 -2.0465670069 -1.4241334901
C 4.2810956396 -0.9276160167 -1.4521560806
O 3.2209398973 -1.2722967958 -0.5377836186
P 2.2162227499 -0.1787418264 0.0219514193
S 3.0529361413 1.4593778398 0.708984613
O 1.3620970581 -1.0212440573 1.0521677294
C 1.6861282911 -1.0431574169 2.4611432218
C 2.9887083132 -1.7688571347 2.7206480407
S 0.8434635855 0.0739638008 -1.5677521143
C 0.1176991079 1.6187520178 -0.9515483799
S -0.8533251836 1.3869483148 0.5507766465
P -2.4335595367 0.2770063038 -0.3749258813
S -2.8617938983 0.785199406 -2.213038383
O -3.5805664758 0.3334391428 0.7222943643
C -4.0688614173 1.532317565 1.3546845545
C -4.5224562015 2.5788393568 0.3592706247
O -2.0175417219 -1.2422951701 -0.3315134796
C -1.7514787431 -1.9674725699 0.8923513382
C -2.9378667759 -2.8356085323 1.2573118501
H 5.7266846691 -2.1432156664 -0.428762544
H 4.8302790982 -2.9851155889 -1.6990706065
H 6.0949672328 -1.8219535786 -2.1305237948
H 3.8472405659 -0.8067337044 -2.4485938817
H 4.7190248956 0.0251540328 -1.1353172557
H 1.7371300457 -0.0102938897 2.8198412904
H 0.8383266002 -1.5546874885 2.9181618203
H 3.813300877 -1.2148076722 2.2736291293
H 3.1532840989 -1.8437082274 3.7909366176
H 2.9580148265 -2.7644209437 2.2860769062
H -0.5279759747 1.9943337893 -1.7458962616
H 0.9126649552 2.3240980133 -0.7091657435
H -4.9001803407 1.1782437876 1.9668419537
H -3.2753831035 1.9267137129 1.9955945002
H -3.6752131318 2.9349847366 -0.2249646615
H -5.2567647166 2.1596620458 -0.3244668527
H -4.9621388899 3.4161813913 0.8915058128
H -0.8647751309 -2.5662932151 0.6736178695
H -1.5231334985 -1.2510268452 1.6867022932
H -3.1663003 -3.5131097478 0.4392915709
H -2.6998045162 -3.4117056027 2.1459471856
H -3.8093843929 -2.2156575087 1.4509188168
*
