! pbe def2-sv(p) def2/J RI DEFGRID1 loosescf d4 GCP(DFT/SV(P)) printgap
%output
    printlevel normal
end
* xyz 0 1
C 3.7151996801 -0.4260522983 -2.3649149617
C 2.4794641565 0.4452335016 -2.4049007479
O 2.2051136511 1.0829468435 -1.1360186461
P 2.0374652737 0.3807203321 0.2590233105
S 1.0512663083 1.4685744786 1.5533574636
O 3.5673812697 0.1777794559 0.6710075723
C 4.0060292399 -0.0301645025 2.0205896638
C 3.5701680238 -1.3731748432 2.5726618768
S 1.3069082867 -1.5899538183 -0.0999291813
C -0.0149911224 -1.6923958636 1.1449260938
S -1.6700147056 -1.9461275994 0.4449786364
P -2.1006941485 0.0185216428 -0.1861916789
S -0.9306171633 0.774301871 -1.5783114378
O -2.1607109919 0.7145437893 1.2331714513
C -2.857531757 1.9398513303 1.5404105587
C -2.384010252 3.1061019986 0.6995589382
O -3.6316059477 -0.0167568389 -0.6058931105
C -4.0529422492 -0.3282902849 -1.9451099783
C -3.8142299371 -1.7850862264 -2.2834134653
H 4.569016123 0.1502109203 -2.0180984864
H 3.5597446661 -1.268425161 -1.6925287621
H 3.9133384451 -0.8033046533 -3.3632865716
H 1.5931075393 -0.1270375839 -2.6929997449
H 2.5975197845 1.2912771294 -3.0835240324
H 5.0925764228 0.0417950566 1.9532529146
H 3.6188980809 0.785047061 2.6409083109
H 3.8401388385 -2.1704420212 1.8850249374
H 4.0569482678 -1.5407715631 3.5280516211
H 2.4917535798 -1.3819491475 2.7224279963
H -0.0111594218 -0.7748936731 1.739855917
H 0.1744166143 -2.5710275808 1.7558148951
H -3.9268032612 1.7636474267 1.4030324913
H -2.6322678771 2.0971475437 2.5966342404
H -2.8745402039 4.0153486899 1.031902158
H -1.3061402932 3.2233599042 0.7988016728
H -2.6186715348 2.9362057585 -0.3507878858
H -5.1145955739 -0.0781873583 -1.951009098
H -3.5103099094 0.3224167663 -2.6387737612
H -4.2425980763 -2.0042185696 -3.256079052
H -2.7440692091 -1.9869307188 -2.3140973068
H -4.2683721567 -2.4268557914 -1.5328825445
*
