! r2scan-3c def2/J RI DEFGRID2 scfconv6 printgap
%output
    printlevel normal
end
* xyz 0 1
C 5.2063602932 -1.3977427066 -0.2937754915
C 3.9277137829 -2.1612125725 -0.5749217932
O 2.9300159846 -1.3355193868 -1.2141621481
P 2.1518040165 -0.1697571384 -0.4765226753
S 3.0549317364 1.5451091827 -0.1644473662
O 1.6387001644 -0.894652604 0.8447395553
C 1.4695677433 -0.2600874572 2.123698273
C 2.3825518069 -0.9254157308 3.1348222319
S 0.5567477398 -0.1246278053 -1.8649393492
C -0.0412573252 1.5418087828 -1.4688856947
S -0.6383726669 1.6931926106 0.2366517557
P -2.1674707782 0.2376490327 0.0918157465
S -3.163755499 0.1409498477 -1.5963483928
O -3.049606926 0.4733423631 1.3907147784
C -4.1858361892 1.3558329605 1.4060319947
C -3.7824728117 2.8084948857 1.2569294556
O -1.3457004759 -1.0505867968 0.5152863958
C -1.726780983 -2.3772324608 0.1022563072
C -2.9978924055 -2.8304390358 0.7888545111
H 5.9459362237 -2.0746102183 0.1223911245
H 5.5933263001 -0.9610733387 -1.2110204072
H 5.0193725232 -0.5927835758 0.4152981463
H 3.5039614813 -2.5705979441 0.3453802683
H 4.093268166 -2.9641586974 -1.295316394
H 1.701667399 0.8061550977 2.0281663341
H 0.4166333573 -0.3786931331 2.3891033178
H 2.181017205 -1.9920286255 3.1802117366
H 3.4229115953 -0.770723486 2.8578972323
H 2.2077011203 -0.4856925248 4.1112503399
H -0.8538703584 1.7511161464 -2.163342556
H 0.7703909402 2.2611177657 -1.5753422396
H -4.8628090807 1.0606368541 0.5980681176
H -4.6528087894 1.1637478926 2.3728827404
H -3.3757794117 2.982176559 0.2614969587
H -4.6542898471 3.4398258658 1.3955447954
H -3.0256895935 3.0688888984 1.9926395215
H -1.8475609463 -2.3802782875 -0.9861637782
H -0.8696711329 -2.9939798767 0.3770807375
H -2.8934219987 -2.7487207463 1.8675162311
H -3.8312494296 -2.2066574422 0.4671967811
H -3.2048416901 -3.8616313968 0.5204513803
*
