! pbe def2-sv(p) def2/J RI DEFGRID1 loosescf d4 GCP(DFT/SV(P)) printgap
%output
    printlevel normal
end
* xyz 0 1
C 3.2857285494 -1.0877527329 -3.2069232942
C 3.915128163 -1.3638826218 -1.8552797131
O 3.8085550979 -0.2437041671 -0.960196603
P 2.4646813233 0.2713039161 -0.298721919
S 1.3237688407 1.4207171298 -1.4189520746
O 3.1881101673 0.9800266222 0.9083234282
C 2.5814567131 1.9039885402 1.827019715
C 2.3446057147 1.2315567664 3.1644365615
S 1.5229429568 -1.4782706442 0.4639792386
C 0.2088650953 -1.6671610428 -0.7940352148
S -1.4369834446 -1.928850409 -0.0947322685
P -1.9543171635 0.0958465921 0.3340826104
S -0.849519674 1.0452444795 1.6356692631
O -3.4800055745 -0.0558451298 0.7474255769
C -3.8528591724 -0.6366414819 2.0142900016
C -5.3061294589 -0.2954870954 2.2727085523
O -2.0113597388 0.836461235 -1.0493429607
C -2.8145621935 0.4044539631 -2.1771407849
C -4.1544423313 1.1100924023 -2.1836458254
H 2.215043426 -0.9222242165 -3.1021427877
H 3.725007997 -0.1975077994 -3.6496603879
H 3.4542328764 -1.9362321712 -3.8622297358
H 4.9920543912 -1.5171211097 -1.9450751182
H 3.460176299 -2.2379774412 -1.3784426282
H 3.2979492186 2.7230748748 1.9168372842
H 1.6457771044 2.286474178 1.4063778617
H 1.5932953574 0.4512631964 3.066092643
H 3.2699940891 0.7946096767 3.5282459068
H 1.983883162 1.9698342516 3.8728210474
H 0.4209352474 -2.5552641761 -1.3832241777
H 0.1992974608 -0.7604361218 -1.406963678
H -3.6998714364 -1.7172247353 1.9504162572
H -3.1985239603 -0.226880619 2.7908183392
H -5.4353818152 0.7825661277 2.3117685148
H -5.9299972187 -0.6983388467 1.4801780894
H -5.6083105132 -0.7264709703 3.2214146836
H -2.2154918468 0.6756915235 -3.0487944047
H -2.9392501749 -0.6809135246 -2.1292301174
H -4.7292679157 0.8352303496 -1.3034613129
H -4.0074284738 2.1867698376 -2.1844260195
H -4.7015465783 0.8220471038 -3.0758797776
*
