! r2scan-3c def2/J RI DEFGRID2 scfconv6 printgap
%output
    printlevel normal
end
%cpcm
    smd true
    smdsolvent "water"
end
* xyz 0 1
C 1.7039185212 -2.9439813785 0.5480310809
C 1.5695381992 -1.7032893599 1.4075912992
O 2.5837519701 -0.7266796486 1.1242352482
P 2.6734083392 0.185677679 -0.1793035232
S 3.092697926 -0.6651070607 -1.8932895881
O 3.8377388484 1.1635685491 0.2217851196
C 4.090616643 1.6964036797 1.5457177989
C 2.9502386414 2.5506222142 2.0561468446
S 0.8705812928 1.3449495087 -0.1873799924
C 0.10676639 0.6749501877 -1.6759173784
S -0.7252432943 -0.9156261135 -1.3956685343
P -2.2916858816 -0.1541724916 -0.2085642554
S -3.0234052184 1.5969497973 -0.7169454845
O -1.6751397387 -0.2715189484 1.2417517598
C -2.1966104532 0.45973612 2.378794992
C -1.0786636113 1.2643963454 3.0104204868
O -3.3588772658 -1.3311617127 -0.1865721809
C -4.3070877761 -1.5332914713 -1.2534670382
C -5.5081311915 -2.2590786658 -0.6810458347
H 1.5227289129 -2.7060239937 -0.4984947747
H 2.7041661662 -3.3593031588 0.6404947006
H 0.9752924343 -3.6812523162 0.8695760611
H 1.7268969041 -1.9377556856 2.4625684571
H 0.5838831927 -1.2458553609 1.2785499195
H 4.2865147922 0.8589856351 2.2175428017
H 5.0004143504 2.2820403499 1.4057077391
H 3.2328607214 2.989326847 3.007998844
H 2.7232118108 3.3443155075 1.3489751115
H 2.056942236 1.9449093849 2.1977591011
H 0.8742775645 0.4934118118 -2.4292766171
H -0.6262355941 1.4077424886 -2.012216629
H -3.0061446517 1.1138064674 2.0407196152
H -2.5935690431 -0.2899842728 3.0651741294
H -0.7027066613 1.9991501007 2.3019187193
H -1.4618283573 1.7768601276 3.8867904153
H -0.265171677 0.6075813605 3.3053544185
H -4.5877150508 -0.5567046022 -1.6627390868
H -3.817535131 -2.1225261819 -2.0329534241
H -6.2212953453 -2.4491767357 -1.476383845
H -5.1958929466 -3.2026878943 -0.243306892
H -5.9806489008 -1.6529446116 0.0868040349
*
