! pbe def2-sv(p) def2/J RI DEFGRID1 loosescf d4 GCP(DFT/SV(P)) printgap
%output
    printlevel normal
end
* xyz 0 1
C 2.6989514668 -1.1313923808 -2.5931779096
C 2.8914041614 0.2383218071 -1.9740963001
O 3.1683015484 0.1280030543 -0.5653025565
P 2.1124149777 0.2900727121 0.6053604726
S 1.1394937529 1.9840576148 0.7257140427
O 3.0155243249 0.1269953644 1.8880174713
C 3.8773561148 -1.0122948403 2.1336022467
C 5.2961974689 -0.7249494777 1.687479178
S 0.9367138407 -1.4852079038 0.5575215271
C -0.4477515498 -0.8766831053 1.5731140209
S -2.0692725725 -1.2095364837 0.8485879895
P -2.0969233128 0.2688093863 -0.6905092441
S -0.6614887089 0.246568857 -2.01742168
O -2.1402837339 1.6891954771 -0.0132820873
C -3.1573886326 2.1682766134 0.8995475221
C -2.7071612427 2.0257858477 2.3406938189
O -3.5802586735 0.1243396019 -1.242145903
C -4.2155080113 -1.1160594313 -1.6081670155
C -3.3890004488 -1.9377006557 -2.5743379477
H 2.6002240642 -1.0187716134 -3.6676958242
H 3.5504293346 -1.7678423823 -2.3701161758
H 1.7925164008 -1.5948391888 -2.2108386571
H 2.0080090732 0.8644872734 -2.1269324749
H 3.7685014267 0.7417019935 -2.385418581
H 3.8244665214 -1.1615714772 3.2135044149
H 3.4664641819 -1.8846052679 1.6172570543
H 5.6667697478 0.1695062575 2.1807069088
H 5.9277892435 -1.5678748651 1.950089956
H 5.331283431 -0.5703645544 0.6126190027
H -0.3183693513 0.2009593316 1.706434802
H -0.4385220169 -1.4034461581 2.523731238
H -3.2754067281 3.2186987634 0.6286162964
H -4.0884603804 1.6305843279 0.7111498305
H -2.6972676636 0.9819253552 2.6450316493
H -1.7081310242 2.4421110858 2.4543557751
H -3.3931594896 2.5719760097 2.9802530922
H -4.412361014 -1.6790159433 -0.6916075077
H -5.1569148882 -0.7965877581 -2.058839321
H -3.1419314996 -1.3515843485 -3.4565398252
H -2.4597583655 -2.2522109668 -2.100712253
H -3.9506569441 -2.8175590446 -2.8709137345
*
