! r2scan-3c def2/J RI DEFGRID2 scfconv6 printgap
%output
    printlevel normal
end
* xyz 0 1
C 5.7486435477 -0.2129022757 0.2401532175
C 4.4150745289 -0.6863627526 -0.3020096442
O 3.377104759 0.0900196191 0.327481215
P 1.9168940601 0.1861545767 -0.2962607871
S 1.8899448536 0.5885512725 -2.2194356808
O 1.2337418613 1.2112113745 0.6955547574
C 1.2609164582 2.6346317019 0.4763437936
C 2.661398113 3.1975216161 0.5817962471
S 1.0904651634 -1.6486020852 0.2988445723
C -0.2062784314 -1.8913244583 -0.9641514275
S -1.8674339714 -1.9753249611 -0.2629213326
P -2.1145025622 0.088099764 0.1824654768
S -1.4878284741 1.3330128318 -1.1913649136
O -1.4295618151 0.3471627329 1.5792037169
C -1.8493978915 -0.2905356355 2.817471713
C -0.8466012392 -1.342569272 3.2455518586
O -3.656695163 0.2008556026 0.5527456092
C -4.6831828008 0.4301379108 -0.4298073049
C -4.8470357653 -0.7377621308 -1.3803364866
H 5.9074467604 0.8318070072 -0.0119055402
H 5.7674619268 -0.321599042 1.3205329291
H 6.5417110428 -0.8107438192 -0.1965758318
H 4.2406841121 -1.7400102949 -0.0679799954
H 4.3467825569 -0.5442453218 -1.3860510437
H 0.8272570996 2.8418008545 -0.5081076247
H 0.5993469959 3.0262656387 1.2508051635
H 3.2735454358 2.8150215969 -0.2341849177
H 2.6180284755 4.2800512084 0.5133122468
H 3.1114970031 2.9079390026 1.5277146612
H -0.0298185069 -2.8519619755 -1.4406045822
H -0.1449900929 -1.0743705342 -1.6884807068
H -1.8967751253 0.5270853157 3.5385368386
H -2.8442340443 -0.7166179589 2.678550265
H 0.1521155318 -0.9143954636 3.2787430303
H -1.1153893486 -1.7017613803 4.2338759068
H -0.8403390357 -2.1803112373 2.5524417895
H -5.5800736647 0.5906926849 0.1702220386
H -4.4346751291 1.3428511211 -0.9799674735
H -3.9735473701 -0.8211809115 -2.0248457517
H -4.9646101202 -1.6652549932 -0.825782325
H -5.7234440291 -0.572661412 -1.9988043798
*
