! pbe def2-sv(p) def2/J RI DEFGRID1 loosescf d4 GCP(DFT/SV(P)) printgap
%output
    printlevel normal
end
* xyz 0 1
C 4.7263535779 -2.1639216271 -0.7470706939
C 4.4619518871 -1.3699716392 0.5148856563
O 3.8604689838 -0.0870844788 0.2567694329
P 2.5322498154 0.1586294817 -0.5771303666
S 2.6843038392 0.1062867021 -2.5288108537
O 2.1371404521 1.62269662 -0.1408287983
C 1.5903850046 2.0601484032 1.1237187525
C 2.3608319732 1.5620445933 2.3274090887
S 1.1400913121 -1.2033095003 0.2847641901
C -0.0580270333 -1.1540288599 -1.0634405764
S -0.7883619706 0.497032085 -1.3198859912
P -2.2892893885 0.4009073789 0.172660362
S -3.3844025869 2.0102231281 0.3792613072
O -1.4219838158 -0.0411088041 1.4179031578
C -1.8941303957 0.112245314 2.7757215785
C -3.0932375213 -0.7661275453 3.0581934587
O -3.0935097665 -0.9360250915 -0.1606270879
C -4.2117162951 -0.9530870818 -1.067039797
C -5.1347965921 -2.0825357692 -0.6542509839
H 5.2582386019 -3.0755242358 -0.4944601485
H 3.7873427542 -2.4223589393 -1.2339295008
H 5.3218702724 -1.5801228369 -1.4449309019
H 5.3914647516 -1.1174461273 1.0280803518
H 3.8031764899 -1.9250365433 1.1884654994
H 1.6248054474 3.1482758989 1.0456188962
H 0.5447294347 1.7377747287 1.1664027762
H 2.263832357 0.4823422297 2.4231522728
H 3.412707715 1.8171805713 2.2292208179
H 1.9584367601 2.0338437992 3.2188734376
H -0.8392261104 -1.8709305448 -0.8246309531
H 0.4470561 -1.3960403781 -1.998672499
H -1.0308889881 -0.170937265 3.3793372688
H -2.1399947805 1.166203404 2.9377573301
H -3.9432856084 -0.4292634118 2.4663291973
H -2.8712384805 -1.7993087546 2.8050270179
H -3.3484609632 -0.6975360406 4.1110391495
H -4.7187988331 0.0166163976 -1.0173143961
H -3.8278233481 -1.1011055627 -2.0801589964
H -5.9648354286 -2.1340887402 -1.3511499481
H -4.5974353741 -3.0262490688 -0.6651434297
H -5.5195070797 -1.9069189726 0.3463379949
*
