! pbe def2-sv(p) def2/J RI DEFGRID1 loosescf d4 GCP(DFT/SV(P)) printgap
%output
    printlevel normal
end
* xyz 0 1
C 5.7339329598 -1.4708404161 -0.2476957665
C 4.787195244 -0.2886938966 -0.2250800137
O 3.4536872248 -0.7965291699 -0.0066182477
P 2.1823979751 0.1354252246 -0.2064595498
S 2.1001407022 1.05153427 -1.9414975645
O 2.2471990213 1.0809139992 1.0742480745
C 2.0340657814 2.5019521938 1.0685590493
C 3.3577637089 3.2316175482 0.9562093143
S 0.7725537914 -1.3503607398 0.247302293
C -0.1953397498 -1.3382301597 -1.3109714117
S -1.9558376413 -1.5745618983 -1.0286303465
P -2.4190715867 0.2258339563 0.024705604
S -1.0316455602 1.6098034576 -0.0633395548
O -2.8643009539 -0.1895889295 1.4942859348
C -1.9555268103 -0.5796344163 2.5390093998
C -1.8397072579 -2.0889482966 2.6248002938
O -3.7731961887 0.745095633 -0.5795016221
C -5.0835264206 0.1823996243 -0.3096497723
C -5.1977327409 -1.2594441791 -0.7536545133
H 5.6720650438 -2.0110864153 0.6924055891
H 5.4686907024 -2.1442395477 -1.0575619932
H 6.7478639927 -1.1131534226 -0.3941980711
H 4.798164351 0.2553500774 -1.1761037355
H 5.0289845686 0.4033291758 0.5861944442
H 1.3701863428 2.766479638 0.2402519454
H 1.5297358526 2.7156038094 2.0120092691
H 3.8237043272 3.0084364928 -0.0021580237
H 3.180753538 4.3001838933 1.0215640116
H 4.0239719435 2.926351764 1.7585883267
H 0.1215015971 -2.1753572137 -1.9279378518
H -0.0177659325 -0.3854981501 -1.8161702006
H -0.9803799842 -0.1144726384 2.361398889
H -2.3928909775 -0.1638614122 3.4489000003
H -1.2377792666 -2.3468972556 3.4898419611
H -2.8261334798 -2.531760096 2.7277775978
H -1.3581563211 -2.4886066969 1.7351245084
H -5.2810115251 0.2821995153 0.758920381
H -5.7512062657 0.8338930678 -0.8752495127
H -4.5245523091 -1.8886955628 -0.1741899202
H -6.2180779699 -1.5969367375 -0.6001609238
H -4.942465279 -1.3556610404 -1.8056292621
*
