! r2scan-3c def2/J RI DEFGRID2 scfconv6 printgap
%output
    printlevel normal
end
%cpcm
    smd true
    smdsolvent "water"
end
* xyz 0 1
C -3.0602658836 -0.3812010875 -0.0017871696
C -1.597233843 -0.0544583847 0.0026027149
C -1.1685541546 1.2689854007 0.0006175352
C 0.1783900296 1.5586852438 -0.0009863106
C 1.150450724 0.5586558428 -0.0009299446
C 0.732669031 -0.7708397751 -0.0005025623
C -0.6341531198 -1.0466983449 0.0013949264
C 1.6584648182 -1.9549583961 -0.0004610402
C 2.5853776822 1.0056397495 0.0009532007
H -3.5136527789 -0.0613449299 -0.9393329298
H -3.2199576533 -1.4499945726 0.1131500707
H -3.5681612971 0.1395107408 0.8081565464
H -1.8951887435 2.0688937171 0.001112334
H 0.4994022004 2.5912434645 -0.0016672822
H -0.9465177405 -2.0824740593 0.0027509503
H 1.4587896138 -2.5765006469 -0.8721738935
H 2.7053996906 -1.6746240039 -0.0157745435
H 1.4800498289 -2.559878307 0.8874622647
H 3.2868796618 0.1793469295 -0.0077864371
H 2.7779386235 1.6262317005 -0.8731814176
H 2.7804000755 1.6091495498 0.8865430771
*
