  22
        -26.18279838
 C         -3.1764823337       -1.0716509670        0.1658410483
 C         -2.4391615546        0.1675268845       -0.3275037524
 C         -1.0270925339        0.2530624416        0.2485653854
 C         -0.2799486856        1.4883813161       -0.2447598847
 C          1.1415552207        1.5924031367        0.3071633266
 C          2.0728289069        0.5095506547       -0.2426343955
 C          1.8438812614       -0.8407445954        0.3427387933
 O          1.9481641611       -1.8912264812       -0.2491512486
 H         -3.2651975618       -1.0564756200        1.2498590184
 H         -2.6377674002       -1.9728270080       -0.1198859492
 H         -4.1754144097       -1.1183554242       -0.2605205932
 H         -2.9991613784        1.0610432011       -0.0428892663
 H         -2.3822512047        0.1445066760       -1.4180134374
 H         -1.0864371831        0.2743855254        1.3394465312
 H         -0.4751417756       -0.6473964292       -0.0354212361
 H         -0.2431936796        1.4739193219       -1.3362436079
 H         -0.8370551331        2.3787429450        0.0542670773
 H          1.1155886664        1.5307043904        1.3966591549
 H          1.5495536987        2.5663986847        0.0348588646
 H          3.1025483193        0.7635906173        0.0286842405
 H          2.0189454840        0.4527183824       -1.3309821497
 H          1.6078574173       -0.8375028446        1.4230176641
