! wb97x-v def2-tzvp def2/J RIJCOSX DEFGRID2 scfconv7 GCP(DFT/TZ) printgap
%output
    printlevel normal
end
* xyz 0 1
C -2.503860091563714 0.8007427743807941 -0.0036695857573329368
C -1.2122868911210987 0.03165100883453642 -7.523815765925014e-05
C -1.2410063870378372 -1.3619246426234928 -0.0017105245397646572
C -0.05765061074686996 -2.0961767896100296 0.001556021723008994
C 1.157446191094992 -1.4290543923818688 0.0036527366055584772
C 1.2230196278919925 -0.027464307094646357 0.003454232018816248
C 0.027232269477976495 0.714701153092155 0.004971986582666144
C -0.004252526749590803 2.2197379914150583 0.003517513446674493
C 2.60074605767998 0.5872040200661202 -0.006817632853902941
H -2.6056383285561737 1.420357540658269 0.8952162061640571
H -2.5650261201903577 1.4813731402531918 -0.8606673023354283
H -3.3582437991085143 0.12103621007656135 -0.04556910130122013
H -2.1996619471693934 -1.8737395744156573 -0.005684430770129458
H -0.08672699264390174 -3.181820850108649 0.0012596138590841113
H 2.0857132234679625 -1.9952031053680277 0.003796996462342726
H 0.983554263459416 2.6687370339368552 0.08844652469116746
H -0.46441415986150275 2.599483778828783 -0.9167120128816516
H -0.6129134633184271 2.596835003892586 0.832894968552333
H 3.1842964985488464 0.22617569945964017 0.8469892627437876
H 3.1429482610302215 0.2866883093659966 -0.9103737057595769
H 2.5990729254180795 1.6754093704364914 0.02907324793564964
*
