! r2scan-3c def2/J RI DEFGRID2 scfconv6 printgap
%output
    printlevel normal
end
%cpcm
    smd true
    smdsolvent "water"
end
* xyz 0 1
C 2.4582888493 -3.1686593468 -1.1588243528
C 3.3589061443 -2.0799758565 -1.7038022703
O 3.5771863012 -1.0104317091 -0.7552282258
P 2.4657863407 -0.0717135892 -0.1203843595
S 3.3041161933 1.5407009526 0.5948958507
O 1.6631209885 -0.9566666701 0.9419648647
C 1.9414097531 -0.9459086091 2.3565946678
C 0.9641410205 -0.0552441622 3.0974304461
S 1.0287381221 0.1288421649 -1.6575027863
C 0.4038341418 1.7580523715 -1.179466603
S -0.4499541381 1.758956646 0.4188168569
P -1.9484924766 0.3576493421 -0.0922200599
S -2.6435212869 0.4613071833 -1.9266904021
O -3.0277184198 0.561993252 1.0539181754
C -3.9600301004 1.6613067743 1.0298709903
C -5.1056344289 1.3211036653 1.9618154913
O -1.2852293065 -1.0065290396 0.3503222085
C -1.6543009464 -2.2660225161 -0.2472205547
C -3.0580190674 -2.6752334945 0.1449148409
H 2.8644965485 -3.567220916 -0.2326711251
H 1.4644769528 -2.7680846549 -0.9681635127
H 2.3835755287 -3.9664528716 -1.8910950258
H 2.9380035431 -1.6476700023 -2.6154210425
H 4.3667436205 -2.4491582466 -1.9006121278
H 1.8392044546 -1.9881101964 2.664509129
H 2.9704929591 -0.6116012899 2.5192300205
H -0.0569370389 -0.3252468858 2.8382652739
H 1.1104152279 -0.1756857878 4.1659980411
H 1.1278201025 0.9868970885 2.8310262727
H -0.2875826933 2.0595268325 -1.9657955652
H 1.2344249642 2.4569561887 -1.0846498501
H -3.4337316891 2.5625802395 1.3558782503
H -4.3070484629 1.8020203607 0.0004837264
H -5.8044241271 2.1508259874 1.9840527817
H -5.6196071048 0.4291448296 1.6149707326
H -4.7261405076 1.1425185832 2.9636241969
H -1.5646178637 -2.1748844524 -1.334769108
H -0.9065443162 -2.9645488727 0.131245348
H -3.1560595933 -2.6951039092 1.2270055959
H -3.7739276403 -1.9610493957 -0.260676627
H -3.2738065201 -3.6595636641 -0.2585100058
*
