! pbe def2-sv(p) def2/J RI DEFGRID1 loosescf d4 GCP(DFT/SV(P)) printgap
%output
    printlevel normal
end
* xyz 0 1
C 2.8030756811 -4.1089469362 -0.9895025598
C 3.7470944348 -2.9196836349 -1.0643824096
O 3.1161934959 -1.8158376868 -1.7445826064
C 2.3848341614 -0.9809952437 -1.0471286916
O 2.2231505804 -1.0335382594 0.1569417024
C 1.7631988727 0.0978316269 -1.909595016
C 0.5314758123 0.639455462 -1.1977178639
H 0.1472868927 1.5362788841 -1.6918209832
C 0.8374618729 0.9886852285 0.2453086065
O 0.1060621577 0.650414154 1.1602126932
O 1.8803326953 1.7602040007 0.3613611999
C 2.2080239491 2.2650915136 1.6743265005
C 1.4140245011 3.5258639556 1.9741576581
S -0.7952450046 -0.6115061348 -1.1819090031
P -2.1157001382 0.2868965864 0.2402939907
S -2.1919404145 2.2359118463 0.4534395119
O -3.5086193387 -0.0758615058 -0.4549819627
C -3.9096302876 -1.4083328851 -0.807276129
O -2.2763931135 -0.6840859803 1.5005289626
C -1.5235789206 -0.8150963672 2.703067834
H 1.9260495201 -3.8533865101 -0.398569691
H 2.4827736924 -4.3955276695 -1.987120026
H 3.3126901852 -4.9446956307 -0.5215973649
H 4.6264489329 -3.1455793617 -1.6672786146
H 4.0419344739 -2.592752193 -0.0633361597
H 1.5091565921 -0.310090756 -2.8866512138
H 2.4925076821 0.9010831657 -2.0341670043
H 2.0000690049 1.4818889998 2.4076207113
H 3.2779309724 2.4667668468 1.6245217648
H 0.345562356 3.3172460289 1.9436764046
H 1.6747192721 3.8888911721 2.962550729
H 1.6354525342 4.2936025454 1.2383395833
H -3.1360326503 -1.8844842114 -1.4111680325
H -4.8236291005 -1.2875971349 -1.3833465114
H -4.0944160853 -1.9910589046 0.0933222586
H -0.5599796701 -1.2784493088 2.4967507987
H -2.1308027252 -1.452008899 3.3434668435
H -1.3681852711 0.1589481035 3.1638395158
*
