! pbe def2-sv(p) def2/J RI DEFGRID1 loosescf d4 GCP(DFT/SV(P)) printgap
%output
    printlevel normal
end
* xyz 0 1
C 4.3920965833 -0.0445434328 -2.2159394812
C 4.5453896589 0.1499037946 -0.721519283
O 3.4756087295 -0.4623545957 0.0195298583
P 1.9817371507 0.0902876584 -0.0157121303
S 1.9004030338 2.0511689852 -0.1108567039
O 1.3686865567 -0.6588471081 1.2323495568
C 1.9072439021 -0.6108824674 2.5700613264
C 1.5124703262 0.6651098922 3.285601169
S 1.0560219373 -0.9594804074 -1.5914764278
C -0.0566144716 0.3317397262 -2.2255817285
S -1.8186218651 0.0086903201 -1.9314834217
P -1.8340881598 -0.3637339842 0.1722031752
S -1.2919006916 -2.1250555851 0.8271640415
O -3.3329938143 0.0081159916 0.5547512921
C -4.3982696429 -0.955825888 0.5038106691
C -4.7189758227 -1.3745515143 -0.9160549155
O -1.0171455943 0.845971516 0.783057226
C -1.5052846273 2.2141233139 0.7017399945
C -2.1797037035 2.620332674 1.9946219495
H 4.2470915902 -1.096864215 -2.4470887031
H 3.5320772088 0.5163416678 -2.5788425603
H 5.2848647814 0.316204691 -2.7164267893
H 4.571144884 1.2159305852 -0.4729955693
H 5.4411454229 -0.3424760704 -0.3406109558
H 1.4686567238 -1.4884539088 3.0498838722
H 2.9930928878 -0.7223769481 2.5162245389
H 1.9510059403 1.5308980177 2.7927075258
H 0.430051181 0.7687001001 3.2749772368
H 1.8613087398 0.6236339381 4.3125788383
H 0.0482727934 0.3557008457 -3.3076466362
H 0.2335758219 1.2884308458 -1.7815420787
H -4.1078907693 -1.8231831908 1.1051466454
H -5.2384975102 -0.4413206485 0.9720902732
H -4.9049989082 -0.5019054158 -1.5369218645
H -3.8820409687 -1.9310425061 -1.3363239251
H -5.5978188031 -2.0111510379 -0.9130113265
H -0.6122263585 2.8154419799 0.5154862837
H -2.1919384021 2.2950545087 -0.14450528
H -2.4943103421 3.6560428929 1.9129463959
H -3.047488546 1.9936670029 2.1822107499
H -1.486993891 2.5239905683 2.8264632196
*
