! pbe def2-sv(p) def2/J RI DEFGRID1 loosescf d4 GCP(DFT/SV(P)) printgap
%output
    printlevel normal
end
* xyz 0 1
C 5.275330505 -2.2271855105 0.6392834195
C 4.6211032922 -1.1316430985 -0.1804479139
O 3.1943396743 -1.3366501603 -0.1524288884
C 2.4698654518 -0.8316395334 -1.1242220363
O 2.9124404456 -0.1881084027 -2.0516281492
C 0.9999503415 -1.1777848407 -0.9616264381
C 0.1543614476 0.012841031 -1.3971668813
H 0.5182271434 0.3651297791 -2.3699341799
C 0.2389956659 1.1741984875 -0.4305209519
O -0.7077376747 1.9005346222 -0.189956174
O 1.427728243 1.3093677896 0.083806867
C 1.6292557515 2.3668559638 1.0478304497
C 3.0734377541 2.3118397991 1.5008320527
S -1.6017756249 -0.3933227305 -1.6630363248
P -2.3900278185 -0.1186580115 0.2868645838
S -1.1947336866 -0.3635810476 1.8310523225
O -3.3658483487 1.1287684662 0.2907804519
C -3.2100178511 2.315724714 1.0723566272
O -3.5681717684 -1.1968690658 0.2510784997
C -3.2868982018 -2.6004590293 0.2175478174
H 5.0614882791 -3.1997941187 0.2060707847
H 6.3488019013 -2.0710436614 0.6545248593
H 4.8946431884 -2.2065242372 1.6558999771
H 4.9529027957 -1.1434943659 -1.2231074933
H 4.824305338 -0.1424602729 0.239778062
H 0.8067853589 -1.4553840669 0.0751394074
H 0.7770181814 -2.0273400453 -1.6097428629
H 1.3831996153 3.3190318922 0.5689843309
H 0.9337336281 2.1985515565 1.8761822493
H 3.7339002377 2.4342404629 0.6468324896
H 3.2549672329 3.110126125 2.212462646
H 3.2754305423 1.3560387788 1.9755077269
H -2.7436859342 3.0879315447 0.463335629
H -2.591354478 2.1173392325 1.949495024
H -4.2136453276 2.6069004123 1.3739987119
H -2.8934712399 -2.8810626197 -0.7595077731
H -4.2391542268 -3.0914317248 0.4008917025
H -2.5701186519 -2.858367816 0.9994456311
*
