! pbe def2-sv(p) def2/J RI DEFGRID1 loosescf d4 GCP(DFT/SV(P)) printgap
%output
    printlevel normal
end
* xyz 0 1
C 3.9481653179 -3.9428132429 -0.5635925594
C 2.4553473619 -3.705144945 -0.7277517357
O 2.0803733834 -2.4079474272 -0.2247787501
C 2.2248262959 -1.3653938054 -1.01725775
O 2.6141707081 -1.4139745543 -2.1619538518
C 1.8088553904 -0.081055696 -0.3226574079
C 0.7246462567 0.6046742767 -1.1533861144
H 1.1001594748 0.7769804899 -2.1663917334
C 0.2913210837 1.9186366935 -0.5363956169
O -0.8604762217 2.133245795 -0.2088091674
O 1.2800265517 2.7534362886 -0.410149729
C 1.0401973441 4.0100161928 0.2651134095
C 1.2280453049 3.844771915 1.7640290121
S -0.7525254021 -0.4460489638 -1.3632851232
P -1.7883411122 -0.1129174306 0.4688227172
S -0.8187805402 0.3114367612 2.1289186751
O -3.1467228528 0.6470551888 0.1736926992
C -3.4963160994 1.9481474744 0.6502027849
O -2.50064711 -1.5473812064 0.5764823135
C -1.7433539279 -2.7213074913 0.875158761
H 4.1872652973 -4.9520735399 -0.8818264862
H 4.5081314711 -3.2383320767 -1.1741848111
H 4.2345642003 -3.8173323217 0.4769885755
H 1.8732532421 -4.407307079 -0.1307895021
H 2.1662145321 -3.7655795454 -1.7808746168
H 2.672495015 0.5838688983 -0.2640098505
H 1.4529161204 -0.3104932145 0.6827320175
H 1.778291223 4.6897533301 -0.1597635602
H 0.0270886029 4.3460350922 0.0314890483
H 2.2402708434 3.5186717488 1.9842061675
H 1.0426516911 4.7936531055 2.2558437467
H 0.5324413653 3.1032568035 2.1537275512
H -2.9087180383 2.2023284986 1.5337802717
H -4.5543906716 1.9009665633 0.898781843
H -3.3132634354 2.6790787421 -0.1350964742
H -1.1045330472 -2.9847267227 0.03099663
H -2.4755648969 -3.503572915 1.0574275857
H -1.1309719715 -2.5574264615 1.7645357502
*
