! pbe def2-sv(p) def2/J RI DEFGRID1 loosescf d4 GCP(DFT/SV(P)) printgap
%output
    printlevel normal
end
* xyz 0 1
C 2.7241127286 -0.8758341544 -2.7830382917
C 1.6734872761 0.0149836773 -2.1570729494
O 1.1308779329 -0.5846999043 -0.9675347106
P 1.9631755421 -0.6489933641 0.390330804
S 3.3016646037 0.7735934267 0.6030335483
O 2.4936472331 -2.1430593071 0.3134375239
C 2.9323297483 -2.9434349944 1.428604328
C 3.960781352 -2.2448338262 2.2932603271
S 0.4256199327 -0.7849203057 1.8284428272
C 0.0296194316 0.9813274785 1.9855941658
S -0.0676142971 1.8731596986 0.4052361984
P -1.8106124908 1.0310314659 -0.4402576249
S -1.9298523123 1.2980969293 -2.377257478
O -2.8501645612 1.7496671457 0.5218057352
C -4.2321283632 1.3503558734 0.6527065207
C -5.0513720208 1.7244769992 -0.5655154777
O -1.9445282152 -0.4826114218 0.0286964124
C -1.7958421818 -1.6289720121 -0.8237590795
C -3.0671840388 -2.4518458892 -0.7620872092
H 2.3080655726 -1.8578559418 -2.9904988504
H 3.0747715988 -0.4256643607 -3.7061985508
H 3.5628308213 -0.9849307124 -2.0959463756
H 0.8100930018 0.157847207 -2.8106455675
H 2.0926583762 0.9933852022 -1.8960192561
H 2.0516797526 -3.2133750559 2.0180151309
H 3.3488065489 -3.833852989 0.9541088674
H 4.80392263 -1.9147445179 1.6910474753
H 3.5196903177 -1.3723126884 2.7730320045
H 4.3120715176 -2.9299305275 3.0581652938
H 0.8238135722 1.4785705142 2.5401154945
H -0.9203525456 1.0435674872 2.510401917
H -4.2678657336 0.273820889 0.8360835417
H -4.5708940267 1.8893149957 1.5392327898
H -4.6955219653 1.187945888 -1.4434804384
H -6.0922525559 1.47072915 -0.3908758685
H -4.9691745259 2.7907024858 -0.7611635022
H -1.5934894881 -1.2883549146 -1.8445499171
H -0.9358938914 -2.189963083 -0.4502271485
H -2.9347460034 -3.3517988211 -1.3535071537
H -3.2834565604 -2.7266812211 0.2664865597
H -3.9018388993 -1.8825893622 -1.1645945618
*
