! pbe def2-sv(p) def2/J RI DEFGRID1 loosescf d4 GCP(DFT/SV(P)) printgap
%output
    printlevel normal
end
* xyz 0 1
C 1.4881207545 -1.2786878893 -2.7153013068
C 2.4128916884 -0.1119383565 -2.4406735289
O 2.1142582803 0.5457454873 -1.1848493616
P 2.2598500437 -0.0841521734 0.2495667764
S 2.4319894166 1.291922666 1.632494255
O 3.5093154116 -1.0441572673 0.0210639059
C 4.0205465297 -1.9634805943 1.0043427846
C 4.9530753248 -1.2820807982 1.9862153397
S 0.6962965297 -1.4917432621 0.6131506159
C -0.2331916823 -0.6531195465 1.9306623465
S -1.9995479182 -0.5485551094 1.5701412796
P -1.8786822015 0.5670209005 -0.2394613066
S -0.5798156241 2.0337760928 -0.2560248581
O -3.3920717933 0.9895282569 -0.4647651194
C -4.02044055 1.987560261 0.3654877918
C -5.295239121 2.4294342761 -0.3239301117
O -1.630025612 -0.4669497373 -1.3988110326
C -2.4688941654 -1.6335437008 -1.6198957157
C -3.4820211071 -1.3596774822 -2.711251176
H 0.4525774197 -0.9516628036 -2.6554051433
H 1.6873029331 -1.6623429209 -3.7110272716
H 1.6507458404 -2.0719926788 -1.9871500032
H 2.2790279263 0.6870815698 -3.1719398075
H 3.4571699361 -0.4289511918 -2.4191540536
H 3.1794957741 -2.4342197371 1.5210649597
H 4.5505954009 -2.7120686104 0.4119314945
H 5.3630976307 -2.0250130967 2.6626405804
H 5.7646582482 -0.7925227182 1.4545844582
H 4.4163065567 -0.5319210328 2.5626390726
H 0.1871017338 0.3489096441 2.0611749312
H -0.1482333984 -1.2356058082 2.8447184279
H -4.2273245062 1.5383597364 1.3405348371
H -3.3223482344 2.8211073959 0.4958596603
H -5.9595090269 1.5805399331 -0.4564446659
H -5.7877591875 3.1787970887 0.2868833563
H -5.0652320699 2.8552486599 -1.2965671576
H -1.7701425241 -2.4221997542 -1.9053278746
H -2.9591512422 -1.8990503924 -0.679580502
H -4.0555372361 -2.2626705852 -2.8951019717
H -4.1542657664 -0.5617120809 -2.4078159611
H -2.9770211127 -1.0626814824 -3.6262082346
*
