! r2scan-3c def2/J RI DEFGRID2 scfconv6 printgap
%output
    printlevel normal
end
* xyz 0 1
C 5.797962587 -0.2158883602 -0.4001551384
C 4.3819762985 -0.6188560312 -0.7578632476
O 3.484622745 0.3390085575 -0.1602071219
P 1.9613691248 0.4367128305 -0.6158290398
S 1.7024424158 0.6234754795 -2.5446615465
O 1.4780651216 1.6638838942 0.2400853732
C 1.7479724269 1.7600554317 1.6645258932
C 0.7764828261 2.7603250862 2.2529446774
S 1.1627418888 -1.3352404549 0.2532812068
C -0.0582052613 -1.8203326186 -1.0065497334
S -1.7207841473 -2.0247517909 -0.3341461969
P -2.0622952887 0.0009940359 0.2226789356
S -1.4693906868 1.3704011517 -1.0457746488
O -1.3975808361 0.1618966795 1.6441579026
C -1.7833484175 -0.6747075696 2.7713000774
C -0.5564305804 -0.9420319876 3.6176935207
O -3.6084153973 0.0258434433 0.5932560834
C -4.6447722635 0.2706437065 -0.3738332728
C -4.7403713436 -0.8310404572 -1.409098999
H 6.0122140994 0.7760619259 -0.7879888544
H 5.9208602329 -0.2074404805 0.6788152263
H 6.490338949 -0.9281222021 -0.8364726329
H 4.1352494066 -1.6080064443 -0.3624839738
H 4.2222224681 -0.6142643681 -1.8411460409
H 1.6220166352 0.7677595123 2.1079135516
H 2.7840285836 2.082683913 1.7818494938
H 0.9763659532 2.8715411382 3.313879179
H 0.8890145328 3.7217163111 1.7595996585
H -0.2444045736 2.4154824315 2.1078528264
H 0.2287455993 -2.7914658304 -1.4016493494
H -0.0580449344 -1.0597488255 -1.7927172552
H -2.5463622766 -0.1257840339 3.3251514566
H -2.2126124161 -1.6043529875 2.3874862655
H -0.1299425945 -0.0058943576 3.966364901
H -0.8453311581 -1.5443601339 4.4729135822
H 0.1902559921 -1.4803530042 3.038713943
H -5.5503195032 0.3354479673 0.2310837731
H -4.4464335903 1.2337557301 -0.853960072
H -4.812479299 -1.8017838924 -0.9250703391
H -5.6191220432 -0.6676803341 -2.024677373
H -3.8582911747 -0.8200029065 -2.0477561891
*
