! pbe def2-sv(p) def2/J RI DEFGRID1 loosescf d4 GCP(DFT/SV(P)) printgap
%output
    printlevel normal
end
* xyz 0 1
C 1.508338189 -3.0886860881 0.7192348971
C 1.6606636106 -1.8883706147 1.6309314132
O 2.7457034637 -1.0279367961 1.2429449067
P 2.7984675339 -0.1572306895 -0.0912493329
S 3.1174714612 -1.0807305139 -1.7849389034
O 3.9803945193 0.8237084503 0.2358810337
C 4.0147529781 1.6406868076 1.4364712366
C 5.004233751 2.7622676549 1.2015931733
S 1.0309989918 1.0638969149 -0.0092531969
C 0.1259185644 0.3208003112 -1.3876672482
S -1.0760228951 -0.915558939 -0.8523201889
P -2.569341324 0.489209914 -0.2537936464
S -2.8481848529 1.962870008 -1.5096132582
O -2.1279701394 1.0043799414 1.1656179721
C -1.9341760781 0.1320409812 2.3085330859
C -3.1539282994 0.1524593352 3.2060138921
O -3.8422682237 -0.4007731691 0.0714302786
C -4.6824253105 -0.9576557277 -0.9588871467
C -4.2822306014 -2.3846626611 -1.2784783738
H 2.4556308862 -3.61346207 0.6266037417
H 0.7630674685 -3.7603284233 1.1324838702
H 1.1866375835 -2.7775175269 -0.2733286986
H 1.9249380423 -2.1903840666 2.6458247746
H 0.739973327 -1.2973644993 1.6490751348
H 3.0086121598 2.0271631272 1.6233106133
H 4.3195421366 1.0000369879 2.2657592825
H 5.983062247 2.3514050218 0.971666082
H 4.6806087743 3.3793958217 0.3680585199
H 5.0703893611 3.3731350239 2.0961056131
H 0.8378139841 -0.1755393378 -2.0518860142
H -0.4059547324 1.1223590879 -1.9024358463
H -1.7263843472 -0.8803070444 1.9506259586
H -1.0577574717 0.5403014599 2.8159583251
H -4.0153739979 -0.2480607105 2.6785762689
H -2.9576199197 -0.4522248658 4.0858412564
H -3.373521017 1.1715766227 3.5118723089
H -5.6909408505 -0.9141349353 -0.5434320087
H -4.6288753924 -0.3164903864 -1.8445436449
H -3.2774099468 -2.4189862798 -1.6933877039
H -4.3093839161 -2.989931954 -0.3770283751
H -4.9786837277 -2.792438227 -2.004087749
*
