! r2scan-3c def2/J RI DEFGRID2 scfconv6 printgap
%output
    printlevel normal
end
%cpcm
    smd true
    smdsolvent "water"
end
* xyz 0 1
C 0.7211900362 0.5770539622 -0.2374619345
C -0.7205737355 0.5767428642 0.2377763556
Cl -1.8017104095 0.6465777841 -1.1727055649
Cl -1.0790227873 -0.8833743889 1.1910917242
Cl 1.8021910415 0.6464496963 1.1732296449
Cl 1.0783232392 -0.8827695444 -1.191737901
H 0.928194087 1.4464549735 -0.8656070461
H -0.9278379204 1.4459959042 0.8661549563
*
