! pbe def2-sv(p) def2/J RI DEFGRID1 loosescf d4 GCP(DFT/SV(P)) printgap
%output
    printlevel normal
end
* xyz 0 1
C 2.4753246955 0.4632339045 -2.4391724421
C 2.1055772386 1.497989778 -1.3977774773
O 1.2886083361 0.9613936908 -0.3221839205
P 1.7980108378 -0.0389201152 0.79553929
S 0.836666966 0.2592999736 2.4789174743
O 3.3536949783 0.2728509758 0.8335635272
C 4.3636946744 -0.6243913329 1.3337038747
C 4.0766568918 -1.1167409709 2.7360196563
S 1.7280732844 -2.0100418263 -0.0218054605
C 0.0930317516 -1.9885507009 -0.7993299823
S -1.2812374745 -1.5995645548 0.3297922256
P -1.8921624658 0.2570348384 -0.4618530593
S -1.2769471422 0.717833048 -2.2671146513
O -1.4952032053 1.2955834337 0.6631809871
C -1.333462614 2.7005711853 0.411109113
C -2.6708827317 3.3872007098 0.2329046194
O -3.4699564873 0.2201289216 -0.2476716664
C -4.359873229 -0.8302658107 -0.6669372801
C -4.2106362244 -1.1893755537 -2.1310757224
H 3.0751451869 0.9456394566 -3.2046691348
H 3.0520693299 -0.3445530455 -1.9949356831
H 1.5800190043 0.0581275293 -2.9049057281
H 1.4716964326 2.2746475801 -1.829459501
H 2.9940257836 1.9451019727 -0.9506742293
H 4.4432166801 -1.4664181063 0.6405113297
H 5.2754323658 -0.0254052101 1.2994187466
H 4.9064992074 -1.7252474364 3.0804936532
H 3.9368188235 -0.2777830212 3.4136945332
H 3.1679827544 -1.7176064419 2.7437696114
H -0.0572486279 -3.0023081254 -1.1628062823
H 0.0748096038 -1.2675176793 -1.6212118279
H -0.7951993929 3.0641975104 1.2883732309
H -0.7088571922 2.8247330211 -0.4798317251
H -2.5149232292 4.4548990339 0.1149298189
H -3.1684710804 2.9966725035 -0.654194395
H -3.3024054633 3.2040180227 1.0981242351
H -4.1778063182 -1.7029223351 -0.0332475693
H -5.3501213156 -0.4226381249 -0.4552521936
H -4.3211412645 -0.3046368549 -2.7537288203
H -3.2281343092 -1.621358368 -2.3157464533
H -4.971855752 -1.9145951935 -2.3999536539
*
