  40
        -77.19814333
 C         -2.9649256597        0.1928122607        3.0581516104
 C         -3.6263116714        0.9493008852        1.9122430767
 C         -2.6083779437        1.3943764646        0.8551869648
 N         -1.9686446270        0.2621707087        0.2161554000
 C         -2.8648585584       -0.6781066972       -0.4348244694
 C         -2.2771388632       -1.2606740984       -1.7016555977
 C         -3.0031071732       -1.0633214602       -3.0012083310
 C         -1.7249580267       -0.3288330816       -2.7428089000
 C         -0.6348854751        0.1499862676        0.1629274773
 C          0.2180961291        1.2957033935        0.0281865249
 C          1.5989262475        1.2135047606        0.0567910232
 C          2.2252547276       -0.0237107643        0.1203299775
 C          1.4522354004       -1.1719943930        0.1704387999
 C          0.0685442883       -1.0954908056        0.2355009346
 N         -0.5688086788       -2.3284983266        0.5627148046
 O         -1.5838051475       -2.2993155969        1.2378818591
 O         -0.0262988569       -3.3696643348        0.2170381983
 C          3.7195728926       -0.1196304740        0.0769444315
 F          4.1905055438       -0.2305739826       -1.1862326496
 F          4.3288880862        0.9555743399        0.5995768867
 F          4.1953708600       -1.1870947981        0.7375074381
 N         -0.2849832848        2.5751924084       -0.3747103626
 O         -1.2751469702        2.6072686488       -1.0827233231
 O          0.3495961630        3.5676738973       -0.0587311784
 H         -2.5192808118       -0.7353139501        2.7095539818
 H         -2.1890240320        0.7982451220        3.5218546822
 H         -3.7024782442       -0.0524909092        3.8170875224
 H         -4.0971390331        1.8543287429        2.2980614415
 H         -4.4051135441        0.3327390131        1.4680615577
 H         -3.0969271340        2.0263203283        0.1043880711
 H         -1.8496646961        1.9903602380        1.3662784052
 H         -3.1534416873       -1.4884100780        0.2472428575
 H         -3.7599862915       -0.1069175898       -0.6850617658
 H         -1.7739451042       -2.2134348256       -1.5915031984
 H         -2.9994548372       -1.8739021560       -3.7127417892
 H         -3.9213600641       -0.4979750501       -2.9917427363
 H         -0.8380095879       -0.6278903894       -3.2799218827
 H         -1.7825961701        0.7326574505       -2.5541128817
 H          2.1763810724        2.1229686553       -0.0275696996
 H          1.9160504842       -2.1468088925        0.2195931906
