! pbe def2-sv(p) def2/J RI DEFGRID1 loosescf d4 GCP(DFT/SV(P)) printgap
%output
    printlevel normal
end
* xyz 0 1
C 1.2437153817 -0.3810472781 -3.4492201132
C 1.8421102308 -0.963768195 -2.1867973454
O 1.9543776447 0.1062827622 -1.2147367803
P 2.1962452276 -0.1572510147 0.3189257774
S 2.4642989893 1.513332044 1.2985431597
O 3.4223918723 -1.1711876183 0.2347713195
C 3.8984399957 -2.0158792215 1.2995406103
C 4.2844838753 -1.2409990383 2.54184721
S 0.6440146076 -1.4249809065 1.0409101841
C -0.3245768 -0.2351039042 2.0208393695
S -2.0694777555 -0.220580969 1.571596719
P -1.8443859679 0.5790666703 -0.3911892669
S -0.5934499418 2.0753189102 -0.5793686724
O -3.3489558623 0.7891359291 -0.8522422918
C -4.3631742256 1.466931704 -0.0873726544
C -3.9524987209 2.8653186329 0.3222370663
O -1.3841517506 -0.6140517488 -1.3139815688
C -2.1284197031 -1.8533298387 -1.4427513644
C -2.8994405747 -1.8691372338 -2.7460648995
H 0.262436117 0.0351998522 -3.2344497548
H 1.879027347 0.4141558143 -3.8288829959
H 1.1531035128 -1.1628626881 -4.196362277
H 2.843241311 -1.363373992 -2.3598751254
H 1.2047792615 -1.747256306 -1.7656847824
H 3.1205171841 -2.7502741474 1.5261084082
H 4.7627031975 -2.5153598455 0.8579939586
H 4.7150568361 -1.9210669769 3.269671566
H 5.008694228 -0.4678398072 2.2967631207
H 3.4093410775 -0.7601976172 2.9757063031
H 0.1110075744 0.7592809216 1.8816655635
H -0.2842348577 -0.5390943282 3.0638341367
H -5.2226093753 1.4856491556 -0.7598353957
H -4.5904643375 0.8577944079 0.791834847
H -3.6678587224 3.4488969258 -0.5502489326
H -4.7801195184 3.3524661877 0.8275826425
H -3.0986259031 2.8244843564 0.9975043983
H -1.371779638 -2.6400173774 -1.4131059983
H -2.7964735483 -1.9589494989 -0.5837439734
H -3.6238898848 -1.0591182917 -2.7620620249
H -2.2203267405 -1.7468821873 -3.5852063382
H -3.4183083557 -2.8178700939 -2.839406133
*
