! pbe def2-sv(p) def2/J RI DEFGRID1 loosescf d4 GCP(DFT/SV(P)) printgap
%output
    printlevel normal
end
* xyz 0 1
C 2.8393061758 -3.8210365369 0.2925678765
C 2.7390081319 -2.3416835101 0.6044637172
O 2.3732744972 -1.6571332742 -0.6095446375
C 2.103025547 -0.3752982849 -0.5469725404
O 2.1348255971 0.2919862522 0.4680337944
C 1.7499562808 0.2091329647 -1.9012733314
C 0.4058981629 0.9393173353 -1.8247568842
H 0.279809459 1.5745584231 -2.7042118585
C 0.3106996476 1.7936587495 -0.5760069192
O -0.522998781 1.5720934827 0.2908483702
O 1.1373515537 2.7880068476 -0.5904648166
C 1.2390779852 3.6658237989 0.5559064437
C 2.6312360643 3.5441214311 1.1490976539
S -1.0111666498 -0.2158510929 -1.847822987
P -1.6282616979 -0.498605274 0.1567101417
S -0.55959246 -1.0211871571 1.7278339945
O -2.906476537 0.4113771411 0.4912654082
C -2.9773513855 1.4139554788 1.502226722
O -2.4268190206 -1.7900585698 -0.4003379857
C -3.2063339013 -2.6242618845 0.4551257423
H 3.1267383308 -4.3561055513 1.191258614
H 1.8780907459 -4.1919025115 -0.051225872
H 3.5810940061 -3.9885147364 -0.4824771297
H 3.6920567943 -1.9312760622 0.9518277225
H 1.9763934813 -2.1331157018 1.3626849754
H 1.7041837173 -0.5829549117 -2.6461638148
H 2.526788933 0.9298847123 -2.1641861745
H 1.0536235684 4.6699935911 0.1701449438
H 0.472435128 3.3884126614 1.2825910737
H 2.7075335359 4.1877983684 2.0188905672
H 2.8112985913 2.5141195216 1.4486606922
H 3.3781641807 3.835176538 0.417062347
H -3.9786833686 1.34737242 1.9229637092
H -2.8106714507 2.392248297 1.05532297
H -2.2269441889 1.22626188 2.2722171124
H -4.1528374783 -2.1377767286 0.6898053617
H -2.657932865 -2.8315139744 1.3772742179
H -3.3752016424 -3.5430357619 -0.1011520242
*
