! wb97x-v def2-tzvp def2/J RIJCOSX DEFGRID2 scfconv7 GCP(DFT/TZ) printgap
%output
    printlevel normal
end
%cpcm
    smd true
    smdsolvent "water"
end
* xyz 0 1
C -1.0509206623118357 -2.1943283315553757 9.04198551303847e-06
C -0.20335903838781214 -0.9591672191008876 2.6482866890500016e-05
C 1.1909018515220302 -1.0532234256408899 4.5644039232988256e-05
C 1.9921156278183185 0.08719955255173159 1.282675657782291e-05
C 1.4167398641325797 1.3560361495227877 -1.2918432624243672e-05
C 0.03284422857954773 1.4714415179853497 -3.49826391080792e-05
C -0.7538770973593456 0.32637677015113264 -2.8507558600296346e-05
Cl -2.510511548925767 0.5170578830227244 -0.00012952775542048376
O 3.365650116192409 0.014426984404999385 1.5124429696433186e-05
H -0.4241546742407978 -3.0880564995992694 0.0006959417779872088
H -1.7020669345721173 -2.225413397875575 0.8800113433520934
H -1.7010160994757624 -2.226074064572241 -0.8807567720325742
H 1.656714602066196 -2.035514900629759 8.481333935687113e-05
H 2.045663217292351 2.239707711654025 -1.8247787266869507e-05
H -0.4289684132119601 2.452399210531184 -6.121567920429409e-05
H 3.634964827050063 -0.9147125220129921 1.9502168453680743e-05
*
