! r2scan-3c def2/J RI DEFGRID2 scfconv6 printgap
%output
    printlevel normal
end
%cpcm
    smd true
    smdsolvent "water"
end
* xyz 0 1
C 0.0008771405 -2.4705159697 -7.94582e-05
C 1.2025247035 -1.7819633872 0.0116487063
C 1.1932058546 -0.3927526479 0.0149570884
C -0.0010326922 0.3144201053 0.0017082856
C -1.1943672486 -0.3945941766 -0.0121225756
C -1.2018625182 -1.7836617997 -0.0109843197
C -2.4779448065 0.3841311101 -0.0047421687
F -3.5598367205 -0.3607578542 -0.2716710193
F -2.7153651481 0.9677786484 1.1907908838
F -2.481047925 1.3880956006 -0.9029366641
C 2.4773147567 0.3850937531 0.0054047565
F 2.7406207268 0.9224832465 -1.2065464689
F 2.4640571794 1.421884045 0.8645958204
F 3.5523295858 -0.3507353277 0.3220045367
H 0.0016362515 -3.5476898841 -0.0008576325
H 2.1405836397 -2.3139023429 0.0220009559
H -0.0020904378 1.3936329309 0.0025954614
H -2.1391007855 -2.3170217439 -0.0218121776
*
