! r2scan-3c def2/J RI DEFGRID2 scfconv6 printgap
%output
    printlevel normal
end
%cpcm
    smd true
    smdsolvent "water"
end
* xyz 0 1
C -1.6972180567 0.4087977892 -0.0195486319
C -0.6204843016 -0.6537470142 0.0726684671
S 1.0415509095 0.1392229338 -0.0268277354
H -2.6782573012 -0.0558304905 0.0394073043
H -1.5969300405 1.1233423582 0.7947615778
H -1.6194259829 0.9480278891 -0.9612710357
H -0.6911763389 -1.3588831019 -0.7540052269
H -0.6690376056 -1.1823539416 1.0233856737
H 1.7388308468 -0.9844443822 0.0781883564
*
