! pbe def2-sv(p) def2/J RI DEFGRID1 loosescf d4 GCP(DFT/SV(P)) printgap
%output
    printlevel normal
end
* xyz 0 1
C 1.0108389709 -0.1073267445 3.4980112192
C 1.8191189565 0.8727919055 2.6710269407
O 1.4794029961 0.7651271908 1.2665000189
P 2.3262446674 -0.1319355832 0.2715151346
S 2.8491806322 -1.9212558043 0.8903131609
O 3.5559466928 0.830777922 -0.0323675131
C 4.7706732509 0.3567792933 -0.639197316
C 4.5645038683 -0.036452585 -2.0875815954
S 1.0897373093 -0.0227651596 -1.4340593834
C 0.0622352521 -1.4586707383 -1.0116736961
S -1.0286019975 -1.1559511438 0.3923111277
P -2.2800893373 0.2678042502 -0.5976554054
S -2.5770908486 -0.0455073794 -2.5044803507
O -1.6246688538 1.6872397553 -0.3970485639
C -1.3627944339 2.2804640618 0.8961821789
C -2.4348130245 3.2931219149 1.2417411881
O -3.5379359062 0.3488200096 0.3699206238
C -4.2916742544 -0.7814602505 0.8493962081
C -4.8012948665 -1.6653631146 -0.2690507928
H 1.2590284264 -1.129591243 3.221265616
H 1.2378353811 0.0408019986 4.5488327546
H -0.0522047815 0.0444527497 3.3337811057
H 2.8912592857 0.6990691824 2.7951254334
H 1.5836831343 1.9061559872 2.9307585539
H 5.4583722382 1.197865194 -0.5424885733
H 5.1375886052 -0.4956621676 -0.0582582689
H 5.5227361841 -0.2795936264 -2.535266401
H 3.9149906051 -0.9091451274 -2.1475186147
H 4.1034818414 0.7790408389 -2.6394859356
H 0.7016850349 -2.2986739084 -0.740054387
H -0.5378651266 -1.6769928596 -1.89548404
H -1.3075245836 1.4871659449 1.6465547296
H -0.3828132893 2.7505167039 0.7909796804
H -3.4013785994 2.802717144 1.3222080216
H -2.1891343429 3.7645186726 2.1881785967
H -2.4919071127 4.0513938827 0.4657187454
H -3.6549386892 -1.3510415969 1.5319827989
H -5.1146329952 -0.3246292249 1.4019416713
H -5.4360614492 -2.4416666567 0.1458280798
H -5.3698904409 -1.0793779176 -0.9872231415
H -3.9667881991 -2.1304856176 -0.7916621724
*
