! pbe def2-sv(p) def2/J RI DEFGRID1 loosescf d4 GCP(DFT/SV(P)) printgap
%output
    printlevel normal
end
* xyz 0 1
C 6.1293681992 -1.3900382653 -0.1576525154
C 4.6713365169 -1.4407761395 -0.5659082161
O 4.0496844733 -0.21062602 -0.1345370724
P 2.6310750967 0.2258218751 -0.692962372
S 2.4479442337 0.2877577484 -2.6431612292
O 2.4239930228 1.6483432587 -0.0561703415
C 2.8945152232 2.0874405263 1.2437212727
C 2.2287115541 1.3443602117 2.3817977554
S 1.2978587323 -1.1678146646 0.2180876902
C -0.1387874413 -0.7392832782 -0.7775787147
S -0.8500727022 0.8696078744 -0.2741719988
P -2.8003191635 0.2049335474 0.1928622838
S -4.0251289633 1.5189795185 0.9696309779
O -2.620411935 -1.1374942158 1.0357901704
C -2.578151803 -1.1377055632 2.4728395621
C -1.314737876 -0.4893036657 3.0001413579
O -3.190138591 -0.3776003292 -1.232615348
C -4.5641641143 -0.5893870068 -1.6186281764
C -5.2135536385 -1.7003320238 -0.8204622244
H 6.6162189 -2.3095510062 -0.4652572043
H 6.6223028065 -0.5477085178 -0.6349797665
H 6.2111592555 -1.2829870695 0.919915429
H 4.1486577486 -2.2719296107 -0.0856567929
H 4.5589805403 -1.5249773705 -1.6516450199
H 3.9785566923 1.9661837435 1.2722890961
H 2.6355009529 3.1473002339 1.251025898
H 1.1474712276 1.4030646542 2.2835703904
H 2.5295114883 0.2990263023 2.383457508
H 2.5250146733 1.7997144507 3.3214973839
H -0.8812201091 -1.5198888235 -0.6397748389
H 0.169838135 -0.6572596622 -1.8207356283
H -3.4636360023 -0.6114279195 2.8432990991
H -2.6315894966 -2.1944615445 2.7373792466
H -0.4353363576 -0.9680648043 2.5744479283
H -1.3106294697 0.5683620209 2.7358050023
H -1.2860083664 -0.580775227 4.080934972
H -5.1086072806 0.3507371717 -1.4849814358
H -4.5003393615 -0.8335222327 -2.6799074732
H -4.6191483157 -2.608014823 -0.88285423
H -5.299341975 -1.4035211231 0.2238966785
H -6.2067063887 -1.8908057905 -1.2150235298
*
