! pbe def2-sv(p) def2/J RI DEFGRID1 loosescf d4 GCP(DFT/SV(P)) printgap
%output
    printlevel normal
end
* xyz 0 1
C 5.7730309536 -1.2418704527 0.0173116258
C 4.7450236 -0.1655086843 -0.2643387711
O 3.4572776248 -0.6649669704 0.1538751583
P 2.1130409606 0.0469258233 -0.3085505097
S 1.9542269903 0.3373742044 -2.2415429048
O 2.0806155024 1.3571012324 0.59754292
C 1.8234973263 2.6900238814 0.1271610203
C 3.127415689 3.4427566699 -0.0451048341
S 0.8484484092 -1.3319949312 0.6419583238
C -0.2283771895 -1.8111869351 -0.7629753018
S -1.9595486726 -1.8962955195 -0.271955237
P -2.1767330761 0.1285669711 0.3497156295
S -1.1990139212 1.4622440674 -0.7018234003
O -1.7561957878 0.1945158641 1.8659224012
C -1.951490703 -0.8360469214 2.8660981152
C -3.3959577898 -1.268928303 2.9868615852
O -3.7454568093 0.3610916878 0.4121634338
C -4.5218263784 0.7902267516 -0.7200498181
C -4.5573222782 -0.2470167664 -1.8238329241
H 5.7736156773 -1.4835651225 1.0761560823
H 5.5361188189 -2.1389956554 -0.5473248136
H 6.754809905 -0.8822381988 -0.2729081284
H 4.6937293522 0.0716819264 -1.332966779
H 4.9580789327 0.7485744625 0.2968045776
H 1.2731762277 2.6408670399 -0.8176415227
H 1.185592847 3.1445727818 0.8871110606
H 3.7219034326 2.9798651148 -0.8309076848
H 2.9095711534 4.4683421374 -0.3247698159
H 3.6910589003 3.4340102713 0.8839419259
H 0.0461719399 -2.8091974155 -1.0946484322
H -0.097656489 -1.0777560595 -1.5635289265
H -1.3028347718 -1.6795378356 2.6113695445
H -1.5919282107 -0.3619366716 3.7804365181
H -3.4864981227 -1.9664996241 3.8137085633
H -4.0328454566 -0.4075192282 3.1697695557
H -3.720509317 -1.7597107169 2.071517552
H -5.5133348146 0.9657822734 -0.3003670103
H -4.1025896193 1.731169085 -1.0902142711
H -4.856362325 -1.2137058827 -1.4271637178
H -5.2645938601 0.0658646749 -2.5852630668
H -3.5725625546 -0.3425049421 -2.2787134297
*
