! wb97x-v def2-tzvp def2/J RIJCOSX DEFGRID2 scfconv7 GCP(DFT/TZ) printgap
%output
    printlevel normal
end
* xyz 0 1
C -1.2672651474778285 0.2682211349394245 -6.585980122905245e-06
C 1.5404707966847466e-06 -0.5825212277967662 -2.645433956091836e-06
C 1.267272409512779 0.2682151023807609 1.209406912044622e-05
H -1.3034663259274604 0.9145298924342714 -0.8845171926255626
H -2.1703950011544992 -0.35105389171626 -3.550385300607798e-05
H -1.303497026236086 0.9144918976359867 0.8845304850238058
H -7.32456713887395e-06 -1.2397868124958271 0.878372196249706
H 6.789721360756165e-06 -1.2397758190614714 -0.8783857914176427
H 2.1703994092811993 -0.3510640099006215 4.0338929415780664e-05
H 1.303472668174259 0.9145176166044262 0.8845273522116325
H 1.3035105882272047 0.9144918582833055 -0.884520326565095
*
