! pbe def2-sv(p) def2/J RI DEFGRID1 loosescf d4 GCP(DFT/SV(P)) printgap
%output
    printlevel normal
end
* xyz 0 1
C 2.8941265875 2.1527873169 -1.6642772002
C 2.0593769041 0.8901247023 -1.6797128896
O 1.2835979491 0.7753796991 -0.4536338239
P 1.7660728424 -0.1286702846 0.7543294189
S 0.8999269447 0.2893666534 2.4580869904
O 3.3355707103 0.1249741015 0.768447032
C 4.1540166429 -0.2205220753 1.8989545862
C 4.2477753648 -1.719511497 2.094552759
S 1.6423177278 -2.1166313697 -0.0127242931
C -0.0174781009 -2.1002202172 -0.7457259952
S -1.3390391437 -1.5767447226 0.3939810064
P -1.8899467295 0.2536155307 -0.4947168453
S -1.3823678096 0.5468214354 -2.3670041986
O -1.3633612223 1.2950293528 0.5703527695
C -1.1700990614 2.6897733925 0.2703016869
C -2.4814052466 3.4114762072 0.0439867473
O -3.4582442845 0.329310734 -0.2329769253
C -4.430529792 -0.1919367701 -1.1555205841
C -4.3876920963 -1.7033627837 -1.2528346587
H 3.6219429606 2.1149238069 -0.858333832
H 3.4122841078 2.2406573577 -2.6140833387
H 2.2574781496 3.0222678092 -1.5230213909
H 2.686134473 0.0016810941 -1.7866275724
H 1.3132560866 0.9172501902 -2.4778117033
H 5.1247225792 0.2171554025 1.662237064
H 3.7336727857 0.2589296026 2.7886512632
H 3.2741393452 -2.1174598583 2.3785395843
H 4.5683719436 -2.2035957035 1.175612713
H 4.95930519 -1.9351706749 2.8850258035
H -0.2129775286 -3.1337939857 -1.0212263582
H -0.0381612042 -1.4498460508 -1.6242840761
H -0.6388430571 3.0681519769 1.1456272068
H -0.5248284825 2.7633725355 -0.6111980568
H -2.2903499956 4.4744605248 -0.0655632815
H -2.9588933702 3.0409589036 -0.8624310608
H -3.1483196327 3.2468676637 0.8863795354
H -5.3823929736 0.1584550773 -0.7541823231
H -4.251059738 0.2603055726 -2.13647379
H -4.445546674 -2.147638065 -0.2622498961
H -5.2253026332 -2.0458951485 -1.8519599055
H -3.4603814806 -2.0217652388 -1.7269335504
*
