! r2scan-3c def2/J RI DEFGRID2 scfconv6 printgap
%output
    printlevel normal
end
%cpcm
    smd true
    smdsolvent "water"
end
* xyz 0 1
C 5.6699639029 0.9817571929 -1.5644577687
C 4.2555588041 0.4434725591 -1.6382353522
O 3.7119866996 0.4502894408 -0.3019657937
P 2.1519756125 0.3020174231 -0.0375606237
S 1.0151983527 1.5989102767 -0.9618524053
O 2.0748564939 0.4503660368 1.5251129542
C 2.8389762998 -0.3798659109 2.4427260197
C 1.9141793506 -1.322375081 3.1851191497
S 1.8222414526 -1.7508701575 -0.5199899785
C 0.0344448037 -1.6853385026 -0.7239492035
S -0.7984327229 -1.1316407798 0.8098156757
P -2.3923340328 -0.0657453726 -0.0435877124
S -2.286910359 0.4343660795 -1.942123768
O -2.7174352349 1.1424657074 0.941192102
C -2.0387539978 2.4095771931 0.9281547883
C -0.9990929173 2.4695838656 2.0296515325
O -3.5556780614 -1.0665682689 0.3445269547
C -4.9130081969 -0.8753806822 -0.1170992132
C -5.1967504282 -1.7783487616 -1.30110111
H 6.2695013615 0.3608019432 -0.9055373981
H 6.1046979665 0.9767944586 -2.5585196434
H 5.6625095299 1.9982029179 -1.1811020757
H 4.2361749034 -0.5850049915 -2.0085768429
H 3.6208630338 1.0669977883 -2.276565195
H 3.598646974 -0.9265217084 1.8808184217
H 3.3191536549 0.3265204884 3.1211462849
H 1.1331215789 -0.7614186102 3.6901160452
H 1.4437167812 -2.0204324602 2.4965397179
H 2.4904906141 -1.8772205745 3.9183605025
H -0.2838957223 -2.69659844 -0.9643257063
H -0.2234605229 -0.9856844204 -1.5244277243
H -1.5838486072 2.5686024577 -0.0555270531
H -2.8251805058 3.1500012391 1.0873411051
H -0.5858950783 3.472246951 2.0716525732
H -1.4551481363 2.2219940109 2.984015698
H -0.1898592429 1.7690584509 1.8306498082
H -5.536474501 -1.1309931599 0.7411593107
H -5.061516291 0.1757513716 -0.3783979191
H -4.9970082644 -2.8125338951 -1.0357658361
H -6.2374679963 -1.6739316837 -1.5905825257
H -4.5641867059 -1.5013530528 -2.1419316238
*
