! r2scan-3c def2/J RI DEFGRID2 scfconv6 printgap
%output
    printlevel normal
end
* xyz 0 1
C 5.3808352718 -0.1182043757 -1.4565331474
C 4.5796789325 -0.6312623042 -0.2762463651
O 3.5983283345 0.3308752361 0.157434137
P 2.1300143106 0.4393611788 -0.450979116
S 1.9800604014 0.8389634123 -2.3586536687
O 1.5293531998 1.5656684389 0.4681928217
C 1.6646740532 1.5465929283 1.9131789492
C 0.6900309023 2.5558732092 2.4807143644
S 1.3094500518 -1.4347538653 0.1492020956
C 0.1806272044 -1.773286612 -1.2368957603
S -1.5205614199 -2.0469891706 -0.6995145229
P -1.8999022373 -0.0964716916 0.0688976785
S -1.3369695315 1.3901076492 -1.0742538371
O -1.2481575721 -0.0410988207 1.4999357065
C -1.5624564918 -0.9944280937 2.5511383678
C -2.5620279704 -0.4003790787 3.5205794372
O -3.4516727485 -0.1660188614 0.3925102903
C -4.4335323396 -0.1799835792 -0.6641470905
C -5.7826643013 0.1283283397 -0.0474535393
H 6.1468589187 -0.8437672353 -1.7101623251
H 4.73305278 0.0322983957 -2.3173201851
H 5.8504738606 0.8292431459 -1.206738593
H 5.2141953263 -0.7754952466 0.6004345739
H 4.0753456809 -1.570127929 -0.5206762592
H 1.447000444 0.533893775 2.265381831
H 2.6984813569 1.8006724024 2.1542171999
H 0.9108719747 3.545595696 2.0911225114
H -0.3247449986 2.2911126194 2.1940027402
H 0.7731993306 2.5636148215 3.5626840551
H 0.4980525482 -2.6950838126 -1.7177609628
H 0.2265056111 -0.9294650982 -1.932158793
H -1.9464150146 -1.9106467356 2.0948525069
H -0.6049729352 -1.1997708972 3.0337033716
H -2.1727553248 0.5211527365 3.944338422
H -3.4962839756 -0.184354787 3.0093672799
H -2.7456386736 -1.112554776 4.3188474229
H -4.1501469517 0.5683689394 -1.4115282515
H -4.4211014563 -1.1703588453 -1.1269531921
H -5.7652068019 1.1098241499 0.417954288
H -6.5394140781 0.1151378042 -0.8248066469
H -6.0267163085 -0.6166066864 0.7042003749
*
