! r2scan-3c def2/J RI DEFGRID2 scfconv6 printgap
%output
    printlevel normal
end
%cpcm
    smd true
    smdsolvent "water"
end
* xyz 0 1
C 4.1023560299 -1.1912738277 -2.4212110856
C 4.3530417279 -1.4587721177 -0.9511173373
O 3.1303128594 -1.544698892 -0.1981062099
P 2.2020621972 -0.2826552093 0.0686468727
S 3.1586267375 1.3940694408 0.425748144
O 1.2693874395 -0.8249261329 1.2278362535
C 1.5210867434 -0.5321214544 2.616335942
C 2.7362625231 -1.274808113 3.1309186872
S 0.83957153 -0.2882076785 -1.5449432545
C 0.2250958928 1.40049082 -1.2960353317
S -0.6141459379 1.6265627643 0.2936845322
P -2.2059112931 0.2832473803 -0.0796766286
S -2.8780236869 0.2856634931 -1.9265257791
O -3.3058598202 0.6013500235 1.0230684102
C -4.3624629062 1.5512897345 0.7973166584
C -3.84720597 2.9754835271 0.7799014911
O -1.5554152499 -1.0401117373 0.4968934702
C -2.2804349511 -2.2201102313 0.9039448585
C -3.057943287 -2.8462431893 -0.2350078853
H 3.3996429128 -1.9168840862 -2.8232467001
H 3.6866365471 -0.1932585077 -2.5535968861
H 5.0400974537 -1.2570898006 -2.9635879288
H 4.9703389744 -0.6656158814 -0.5169772474
H 4.8265681758 -2.4285966244 -0.7926128917
H 1.650576813 0.549966075 2.7251056586
H 0.6058970648 -0.844621909 3.1212472814
H 3.6302681044 -0.9116737741 2.6251644932
H 2.8394231911 -1.1027294435 4.1976773786
H 2.6341254894 -2.3401127172 2.9415384082
H -0.4721014689 1.5963955176 -2.1103397369
H 1.0590071175 2.1014916971 -1.3056136979
H -4.849632138 1.3070495278 -0.1521896165
H -5.0511668384 1.3804137353 1.6257421292
H -3.2090162984 3.1294700511 -0.0890969427
H -4.686633768 3.6611476337 0.7263749458
H -3.2687841443 3.1798393285 1.6772917008
H -1.4924083639 -2.8858960204 1.2612606362
H -2.9428015501 -1.9474773438 1.7289472651
H -2.3988671172 -3.0434345797 -1.0776695037
H -3.5010621324 -3.7784523968 0.1012163763
H -3.8491885925 -2.1755103455 -0.566845274
*
