! pbe def2-sv(p) def2/J RI DEFGRID1 loosescf d4 GCP(DFT/SV(P)) printgap
%output
    printlevel normal
end
* xyz 0 1
C 3.188009105 2.3197105226 -0.8586087207
C 1.795200335 1.7987950894 -0.5766550767
O 1.7318986287 1.0857827865 0.6837702429
P 2.0928259646 -0.4292719933 0.908858782
S 1.7769974031 -0.9960483037 2.7518023832
O 3.6009001228 -0.5224296211 0.4205672882
C 4.3659545523 -1.7337499893 0.5906496086
C 5.8358426309 -1.3703322678 0.5331465966
S 1.0684673118 -1.5496535381 -0.5915646445
C -0.45128758 -1.8368840799 0.3581514765
S -1.2264413966 -0.3239486165 0.979366353
P -2.2368990985 0.2470504985 -0.8274965384
S -1.1774637904 0.3157769364 -2.4672384806
O -2.9708626943 1.5748658747 -0.3567358669
C -2.272492987 2.7650365181 0.0578370208
C -1.8888574327 3.6285552558 -1.1281486759
O -3.4189006627 -0.780095965 -0.9842657199
C -4.4570009463 -0.9756058264 0.0091169459
C -5.6878308231 -0.1650208685 -0.3408171432
H 3.1552566681 2.9376454582 -1.7505974876
H 3.5390958376 2.9145022261 -0.0197341897
H 3.8773036618 1.4959202315 -1.0194136921
H 1.4455524191 1.1416280351 -1.379204871
H 1.0868482873 2.6193096335 -0.4440260123
H 4.1017891002 -2.1798503663 1.5553223781
H 4.0907790883 -2.4233377224 -0.2117371962
H 6.0712975782 -0.9150552345 -0.4244307
H 6.0769766865 -0.6687584948 1.3267668227
H 6.4290205358 -2.2701968169 0.6580268038
H -0.2107064391 -2.4302229956 1.2394870157
H -1.1349605531 -2.3630364211 -0.3051077368
H -2.9838198331 3.279000639 0.7075136341
H -1.3944651302 2.4768325142 0.6438311134
H -1.4092427495 4.5345382829 -0.7713351143
H -1.2048896625 3.0935535091 -1.7834126703
H -2.7752413175 3.893141636 -1.6979862725
H -4.6659367909 -2.0465205928 -0.0206466569
H -4.0649972956 -0.7005305407 0.9920507109
H -6.0349797011 -0.4275058624 -1.3363609531
H -6.470446328 -0.3791760744 0.3803561022
H -5.4588083661 0.896864699 -0.3187329719
*
