! pbe def2-sv(p) def2/J RI DEFGRID1 loosescf d4 GCP(DFT/SV(P)) printgap
%output
    printlevel normal
end
* xyz 0 1
C 3.5675503123 2.2182695131 -0.8076844819
C 2.0845152618 2.0988740255 -0.5298681979
O 1.6358371487 0.7295216917 -0.565323581
P 2.1218729162 -0.3616781263 0.4710338315
S 2.4804151546 0.2668363838 2.2953885218
O 3.3671377285 -1.001457692 -0.2786728639
C 4.33247764 -1.8264555321 0.3973292505
C 3.7475004445 -3.1570451025 0.8249834887
S 0.5841259402 -1.7853299895 0.2300629145
C -0.5186474873 -1.1104948481 1.505307915
S -1.125867702 0.5611895783 1.1496971318
P -2.0749515252 0.2155844146 -0.7464462256
S -1.0006193749 0.1639284466 -2.3780134996
O -3.2010798435 1.3410682851 -0.7517496031
C -2.9567408234 2.6593210476 -1.2687815014
C -2.004892403 3.4418074267 -0.3874601655
O -2.8878361852 -1.1156907092 -0.5213165399
C -3.9608254029 -1.2527409961 0.4479274636
C -5.3066730817 -1.031483845 -0.211165996
H 3.8379294733 3.2676685788 -0.8701219527
H 4.1338731335 1.7529717675 -0.0013687847
H 3.8131332736 1.7224167987 -1.7434090513
H 1.4879447327 2.5829792325 -1.3054059343
H 1.836504531 2.516027146 0.4521150927
H 5.1287265424 -1.9526501554 -0.3374158405
H 4.7083037342 -1.2758556151 1.2658989427
H 4.5383555423 -3.7874514708 1.2186680475
H 2.9984826203 -3.0024533949 1.6007697137
H 3.2769568307 -3.6520940382 -0.0211697388
H 0.025470935 -1.0249322027 2.4467401064
H -1.3481519186 -1.8070715035 1.5928067408
H -2.5549995864 2.563246263 -2.2827283973
H -3.9456659654 3.1183756403 -1.3015878248
H -1.9115347953 4.4550672729 -0.7643070146
H -2.368409517 3.4670812155 0.6366990851
H -1.0228773553 2.9691851686 -0.3960193021
H -3.8673679307 -2.2769662189 0.8148121991
H -3.8008090376 -0.5425531849 1.2633424049
H -6.0917029529 -1.2241115729 0.5135295139
H -5.3892195875 -0.0083467854 -0.5670326534
H -5.4225727171 -1.706610228 -1.0545727657
*
