! pbe def2-sv(p) def2/J RI DEFGRID1 loosescf d4 GCP(DFT/SV(P)) printgap
%output
    printlevel normal
end
* xyz 0 1
C 1.8336407002 -1.2512076666 -3.0289550677
C 2.7917841921 -0.376392864 -2.2461741538
O 2.0687337573 0.4131854994 -1.262186674
P 2.1221492497 0.1476929601 0.2911516509
S 1.0286845415 1.4917829292 1.2125032891
O 3.6902239383 0.1592334643 0.547614478
C 4.3537122579 -0.3925952531 1.7003119592
C 3.8267840751 0.1692913975 3.0038213361
S 1.609027603 -1.8866775275 0.641353264
C -0.1780625313 -1.6785835315 0.7687833057
S -0.9086689909 -1.0061004782 -0.7587577288
P -2.1684206523 0.5103297545 0.0344222004
S -2.4005044076 0.541782015 1.9772976803
O -3.5366297115 0.3154355543 -0.7618870469
C -4.5908849722 -0.5457359488 -0.3039508333
C -4.1885174337 -2.0069684228 -0.3022746927
O -1.6766148707 1.8865585147 -0.5546288625
C -1.0200033936 2.1052327764 -1.8236584524
C -1.8002679854 1.5445337096 -2.9927441353
H 2.386717872 -1.7680433089 -3.8065273204
H 1.361920934 -1.9844156761 -2.3793178196
H 1.056427537 -0.6440349181 -3.4839841489
H 3.2748892618 0.3611386745 -2.8887309187
H 3.5511792794 -0.9723251101 -1.7366377859
H 4.2386370146 -1.4796805668 1.6732411886
H 5.400192462 -0.1243051739 1.5450765103
H 2.7835564223 -0.1125736948 3.1421829071
H 4.4111311232 -0.2225958008 3.8300099395
H 3.8875759041 1.2552329471 3.0016512625
H -0.4230629432 -1.0004650463 1.5914067069
H -0.5806624572 -2.6730359442 0.9456789977
H -4.8820696558 -0.2283498794 0.7024135262
H -5.4047723378 -0.3523627789 -1.0041590011
H -3.4354092953 -2.1802214119 0.4651946294
H -5.0591414899 -2.6157697598 -0.0807194401
H -3.784417692 -2.2916959372 -1.2702972623
H -0.9369107297 3.1922371226 -1.8733342861
H -0.0170157047 1.6708282872 -1.766044597
H -2.8095084973 1.9479987005 -2.9957561284
H -1.2986512743 1.8180893352 -3.9159718877
H -1.8557026766 0.4589739705 -2.9243910246
*
