! pbe def2-sv(p) def2/J RI DEFGRID1 loosescf d4 GCP(DFT/SV(P)) printgap
%output
    printlevel normal
end
* xyz 0 1
C 4.8705440139 1.2548590445 0.2638546272
C 3.5978311448 1.5639990047 -0.4952416724
O 2.8464410787 0.3651842022 -0.7818468777
P 2.0957763452 -0.438721765 0.3552133041
S 1.4767311809 0.6012179725 1.9027648207
O 3.161685455 -1.5554287653 0.7448174482
C 3.0259982387 -2.3583060055 1.9267330279
C 1.8748520212 -3.3364642448 1.8061782158
S 0.7209866444 -1.5117201246 -0.8604545404
C 0.2509089645 -0.2088482148 -2.0356654113
S -0.3276296501 1.3109458683 -1.2400577307
P -2.0785840363 0.4784263382 -0.3968856179
S -3.0073387896 -0.8741972891 -1.4762294298
O -2.9095640814 1.7480983251 0.0665617238
C -3.2358211614 2.8872204471 -0.7515895509
C -3.8622752187 2.5049666688 -2.0766476104
O -1.5471846052 -0.0534224293 0.9959494245
C -2.1648651836 -1.1434285865 1.7029966991
C -3.512228795 -0.7395932758 2.2618219497
H 5.4545546159 2.1632576704 0.3729427148
H 4.6254501348 0.8698648837 1.2528648599
H 5.4537973578 0.5086582744 -0.269035745
H 3.8025506646 1.9864034284 -1.4797524214
H 2.9593665852 2.2454423301 0.0763061479
H 3.9851773915 -2.8699545158 2.0140919411
H 2.8776399227 -1.6918171712 2.7834523218
H 0.9357085435 -2.7887542709 1.7166345927
H 1.9961192449 -3.9576074102 0.9224753511
H 1.8351818983 -3.9650729761 2.6898389057
H -0.5557847584 -0.6341055868 -2.634939108
H 1.1061867139 0.0590476543 -2.6498963051
H -3.9297208912 3.4567692984 -0.1305853199
H -2.3200427459 3.4648281016 -0.9075054054
H -3.1454090301 1.9584706872 -2.6882338794
H -4.7321494348 1.8720732123 -1.9173643284
H -4.1638276697 3.4043616272 -2.6038440603
H -2.2622779652 -1.9935082969 1.0188092465
H -1.4505823345 -1.3804324056 2.4936220811
H -4.1883468672 -0.4977937556 1.441943765
H -3.9276730959 -1.561042028 2.8367720467
H -3.4054203695 0.1353288009 2.8976806792
*
