! r2scan-3c def2/J RI DEFGRID2 scfconv6 printgap
%output
    printlevel normal
end
* xyz 0 1
C 4.0579364647 -1.0397088991 -2.4594282132
C 4.3198522331 -1.4919659276 -1.0373343636
O 3.1056800155 -1.625940452 -0.2790489068
P 2.2180481331 -0.3755385943 0.1360437219
S 3.2151479513 1.2359138799 0.6523887575
O 1.2815522476 -0.9996394427 1.250508732
C 1.613072696 -0.9314281138 2.6535989974
C 2.8292402044 -1.7696716448 2.9857895316
S 0.8233622907 -0.1731976597 -1.4411176824
C 0.2034144304 1.4529231417 -0.9334951038
S -0.8404290447 1.3846677327 0.5413373285
P -2.4813322664 0.3912643689 -0.4005490939
S -2.8394695977 0.9037070978 -2.2509803571
O -3.6782761516 0.5851176604 0.6290794257
C -4.5612741327 1.7222523299 0.5918448482
C -3.8473721477 3.0193605553 0.9112498865
O -2.183514285 -1.1504126461 -0.2574131042
C -2.0484409794 -1.8092035922 1.0270890425
C -1.298963112 -3.1059786708 0.8047447491
H 3.6735772201 -0.0203047398 -2.4621510354
H 4.9849035215 -1.0673954413 -3.0231978412
H 3.3260360221 -1.6884630362 -2.934455196
H 4.9720527261 -0.7788632944 -0.5227956452
H 4.7602104051 -2.4894227361 -1.0061152354
H 1.7791119876 0.1176225839 2.9184294568
H 0.7177986885 -1.3025383607 3.1540966349
H 3.7113546763 -1.3485607827 2.504838291
H 2.9820025154 -1.7721980663 4.0604557774
H 2.6912300808 -2.7892375288 2.635790122
H -0.3800500345 1.8387573456 -1.7696416058
H 1.0440097493 2.1055650511 -0.6965044094
H -5.0181464184 1.7693748502 -0.4011812017
H -5.3188625445 1.4839402482 1.3397637852
H -3.2961984614 2.9303522154 1.844121091
H -3.1495428215 3.2673253923 0.11290674
H -4.5779543263 3.8171358642 0.9981401088
H -1.5084392004 -1.1411609189 1.7049473336
H -3.053196485 -1.9830763957 1.4169469952
H -1.8196836284 -3.7120535547 0.0689500925
H -0.2951896498 -2.900824326 0.4409318013
H -1.2380930616 -3.6488470859 1.7425431856
*
