! pbe def2-sv(p) def2/J RI DEFGRID1 loosescf d4 GCP(DFT/SV(P)) printgap
%output
    printlevel normal
end
* xyz 0 1
C 3.0535985902 -3.5217907449 0.2728018579
C 2.7922865649 -2.1272786293 0.8180320411
O 2.6831579467 -1.1643163246 -0.2495532045
C 1.5422194003 -1.0445284733 -0.8851461388
O 0.5390633675 -1.6884367589 -0.6315693727
C 1.5936880361 0.0138759864 -1.9632961098
C 0.4623738424 1.0229016804 -1.7569932581
H 0.4591835135 1.7450047191 -2.5783334998
C 0.5765514234 1.7853994495 -0.4485064366
O -0.3865859333 2.0297165957 0.2499047366
O 1.8102892193 2.1181401474 -0.176396589
C 2.0713238865 2.8389408087 1.0478235461
C 1.8220154686 4.3267619407 0.8680514937
S -1.1995966043 0.2591923041 -1.8232986241
P -1.5954265101 -0.3087471924 0.1740482589
S -0.4909153704 -0.4224847563 1.8084384471
O -2.8474912005 0.6718682267 0.3340135152
C -3.6132028842 0.7313321153 1.539526371
O -2.4089829467 -1.6770835742 -0.0428541407
C -1.9003966634 -2.9937490532 0.1561540405
H 3.9439413304 -3.5185960226 -0.3498967735
H 3.1971878731 -4.206353504 1.1020092209
H 2.20561469 -3.8592482696 -0.3186559277
H 3.6304412785 -1.7687233778 1.4149240833
H 1.8726246191 -2.0982752788 1.4101006132
H 1.4509070313 -0.470945532 -2.9298451525
H 2.5588838917 0.5174472815 -1.9277483858
H 1.4357641944 2.4242492338 1.8359731803
H 3.1200830337 2.6299146892 1.2570929568
H 2.4204148539 4.7101517938 0.046432881
H 0.7700155303 4.5086081124 0.6594481908
H 2.0924664625 4.8451392761 1.7818507611
H -2.9491568931 0.7784381204 2.405436861
H -4.2566886173 -0.1454086815 1.6148121925
H -4.2047249256 1.6402460447 1.465986884
H -1.3740086405 -3.3236661994 -0.7371909725
H -2.7683585648 -3.6190131001 0.3517830209
H -1.2177455973 -3.0050156237 1.0074355782
*
