! pbe def2-sv(p) def2/J RI DEFGRID1 loosescf d4 GCP(DFT/SV(P)) printgap
%output
    printlevel normal
end
* xyz 0 1
C 2.4724929671 -3.2038586765 -1.5683026326
C 2.7593462172 -2.6381910472 -0.1920900044
O 3.2780870897 -1.2879673899 -0.2843342845
P 2.3812894748 0.0082853264 -0.1108193343
S 3.4946454715 1.6111134845 -0.1922391434
O 1.5265126102 -0.2181129812 1.2247039877
C 2.0813252701 0.0767367728 2.5271530069
C 1.7417202463 1.4875710691 2.96417142
S 0.8363601213 -0.1525334565 -1.5357631447
C 0.1979689167 1.529501923 -1.3340271203
S -0.7353840187 1.7558799755 0.196638661
P -2.283341298 0.3717782944 -0.2562133869
S -2.8633233044 0.3796030043 -2.1243604011
O -3.450947216 0.7830780132 0.7284129843
C -3.5501990292 0.4086238652 2.1247030639
C -2.3309102769 0.8075330197 2.9273633071
O -1.7341888663 -1.0204137949 0.3016103302
C -1.7116883639 -2.2314395647 -0.474391188
C -3.0444783672 -2.9475004633 -0.3861171556
H 3.3658992508 -3.1511445886 -2.1841069484
H 2.1659648783 -4.2404912274 -1.4699314782
H 1.6793165355 -2.6411759539 -2.056761616
H 3.5528012465 -3.1974446539 0.306799842
H 1.8615736619 -2.6312485543 0.4311151466
H 1.6276338709 -0.6636804764 3.1885979806
H 3.165350895 -0.0704675786 2.4958956994
H 0.6682788262 1.6472067984 2.9239188822
H 2.0938047201 1.6395945193 3.9793266103
H 2.2227427468 2.2108743162 2.309773356
H -0.4539052247 1.7149037169 -2.1878153276
H 1.0326958577 2.2307357266 -1.3082364602
H -4.4451725202 0.9355280931 2.4589264893
H -3.7135816548 -0.6699483511 2.1762930617
H -2.1355964863 1.8717789095 2.8140142193
H -2.5049495078 0.5844212349 3.9755794638
H -1.4616477576 0.2500751219 2.5831663896
H -1.4721849525 -1.9882502072 -1.5138282595
H -0.9043607465 -2.821995733 -0.0389294617
H -3.8277956278 -2.315176669 -0.8022232376
H -2.9955206421 -3.8684449315 -0.9580410122
H -3.2862589374 -3.1786096662 0.6478370938
*
