! pbe def2-sv(p) def2/J RI DEFGRID1 loosescf d4 GCP(DFT/SV(P)) printgap
%output
    printlevel normal
end
* xyz 0 1
C 2.7218339046 -1.9150366299 -2.4495185387
C 3.9024955394 -1.4686936247 -1.6118874757
O 3.5735120376 -1.4076382094 -0.2131162461
P 2.5099789725 -0.3786327961 0.3630203908
S 2.5372250822 1.4022252772 -0.4734021067
O 2.8132739814 -0.3899388423 1.9207916666
C 3.7522744809 0.5237555198 2.5242201227
C 5.1769866201 0.220365903 2.1113250314
S 0.7208391336 -1.4948552163 0.4107586793
C -0.3222660672 -0.2165761507 1.1642769373
S -0.8505001383 1.0771923747 -0.0069384589
P -2.8380144891 0.367486772 -0.3100928645
S -3.9378755415 1.3851639789 -1.5685975412
O -3.4261519151 0.2069507638 1.1606872698
C -4.1816325175 1.2595688252 1.7842761456
C -3.3111513148 2.4406717702 2.1665506692
O -2.682522877 -1.1859497906 -0.5981336664
C -2.675244212 -1.7048521724 -1.9396854148
C -1.3844086766 -1.3839967335 -2.665560931
H 2.3169500408 -2.8480529599 -2.0649162115
H 1.9437378661 -1.1521843438 -2.421724996
H 3.0379008893 -2.0540319266 -3.4783104708
H 4.2450163272 -0.4790396529 -1.9307118146
H 4.7260506605 -2.1823051237 -1.6572662826
H 3.4773394963 1.5439878663 2.2366948904
H 3.6024229998 0.3833614773 3.5956415772
H 5.3039297187 0.4206951072 1.0483452154
H 5.857436377 0.8525897367 2.6731371283
H 5.4090175334 -0.82395167 2.3028664261
H 0.2386812495 0.2737375694 1.9561054171
H -1.2031821885 -0.7199899122 1.5557907973
H -4.9722870815 1.5747931056 1.0959555076
H -4.6225034678 0.7827984624 2.6609792475
H -2.490470437 2.1207821619 2.8036566452
H -2.901011175 2.9061181014 1.2705375779
H -3.9128658591 3.1715825885 2.697278078
H -2.8037706962 -2.7795917916 -1.8060005731
H -3.5332322149 -1.2890426132 -2.4780251115
H -0.5355981809 -1.771228514 -2.1074836807
H -1.4034804208 -1.8360182837 -3.651880097
H -1.2775064882 -0.3041878957 -2.7742448385
*
