! pbe def2-sv(p) def2/J RI DEFGRID1 loosescf d4 GCP(DFT/SV(P)) printgap
%output
    printlevel normal
end
* xyz 0 1
C 4.5594371313 1.2518465525 -1.5357546094
C 4.6573138424 -0.0435219822 -0.7559400576
O 3.3946408616 -0.7284563016 -0.6811044056
P 2.1709759675 -0.1655080756 0.16186168
S 2.6569791954 0.6821837854 1.8638578459
O 1.2241584966 -1.4297240657 0.2475874821
C 1.2535463856 -2.357987754 1.3495227868
C 2.5655102912 -3.1093612894 1.4233100597
S 1.0832186734 0.9967195985 -1.2201788632
C 0.074756652 1.8855613159 0.0048305767
S -0.9781368301 0.8166863601 1.0170032386
P -2.2262604868 0.011131741 -0.5315728401
S -1.5194260744 -1.4948952439 -1.5664262844
O -2.5956650904 1.2499674282 -1.4378090793
C -3.7153034556 2.1483562393 -1.2244813406
C -3.5757600337 2.9795059005 0.0337821819
O -3.5901587039 -0.3056918126 0.2213309155
C -3.8244682905 -1.5729781501 0.8574568697
C -2.9595075581 -1.7504697819 2.0882584288
H 3.9441167575 1.9678944524 -0.9923244121
H 5.5529558829 1.6683258556 -1.6671217978
H 4.1095756009 1.0733291258 -2.509486947
H 5.0061558056 0.1483687035 0.2640365022
H 5.3157899877 -0.7615629536 -1.2464901291
H 1.070848025 -1.7995345299 2.2739860163
H 0.4155752634 -3.0264328604 1.1428630859
H 2.5054401388 -3.8617795407 2.2033576297
H 2.7757749155 -3.5882618704 0.4703050164
H 3.3746719874 -2.4182594703 1.6578244239
H -0.531747282 2.5877179989 -0.5614026035
H 0.729221219 2.4002820529 0.7083624855
H -3.7068005135 2.7687697367 -2.1220481339
H -4.6278509815 1.5511537843 -1.1934554873
H -3.54854537 2.336555778 0.910507711
H -2.6696346704 3.579334135 0.0072525909
H -4.4324626969 3.6421992253 0.1098147721
H -4.8857981961 -1.5498784678 1.1079372716
H -3.6276858078 -2.3670193976 0.1296771083
H -3.1046979857 -0.924396367 2.7794743552
H -3.214613202 -2.68364898 2.5796957689
H -1.909508154 -1.7790285388 1.797181414
*
