! pbe def2-sv(p) def2/J RI DEFGRID1 loosescf d4 GCP(DFT/SV(P)) printgap
%output
    printlevel normal
end
* xyz 0 1
C 3.6725514193 1.3079144871 -1.386949243
C 3.2210865601 2.056297504 -0.1507780146
O 1.9778611544 1.5448538641 0.3862309888
P 1.767589412 0.0889234993 0.9623902449
S 0.3164031313 -0.0179382067 2.2761131421
O 3.2146665121 -0.1992062807 1.5708446568
C 3.4535618993 -1.2031749331 2.5699579958
C 3.1904419828 -2.6063699488 2.0623135464
S 1.6332344337 -1.2376211351 -0.7041623414
C 0.0005290224 -1.9668419173 -0.4372170085
S -1.2018077784 -1.5131573645 -1.7314182839
P -2.0463255881 0.2046410255 -0.8840907011
S -3.4607642094 1.0883520456 -1.9085123068
O -0.7299712197 1.0619970628 -0.6088943371
C -0.8657323312 2.4678310229 -0.2951702641
C -0.4347572234 3.3024711364 -1.4826374451
O -2.4775200184 -0.1760329322 0.6057671886
C -3.8000505077 -0.6393455503 0.9210343044
C -4.0396121352 -2.0484650887 0.416952691
H 3.9299230827 0.2805825004 -1.134756769
H 2.8842313478 1.2939358501 -2.1359868758
H 4.5473604617 1.8006153843 -1.7999776008
H 2.9859202183 3.0985004945 -0.3739367542
H 3.9795013302 2.0070640163 0.6327368087
H 4.5030161546 -1.0616856271 2.8325089652
H 2.8209606993 -0.9844523422 3.4358602397
H 2.1242298666 -2.7448758784 1.8898197224
H 3.7256161714 -2.7818459761 1.1326956712
H 3.5196321776 -3.3221252169 2.8087856889
H -0.3758839598 -1.6486627217 0.5389172495
H 0.1022178832 -3.0465457294 -0.501880108
H -1.9057952137 2.6745196248 -0.0256162918
H -0.2289378452 2.6352774001 0.5751407164
H 0.578313281 3.0388646489 -1.7728810181
H -1.1023050092 3.1221842215 -2.322997964
H -0.4745228653 4.3531619188 -1.214210715
H -3.844104975 -0.5835238886 2.0097562556
H -4.5229899401 0.0554449795 0.4807618552
H -5.0218753254 -2.379881484 0.7379372285
H -3.9990677592 -2.0649387202 -0.6719867886
H -3.2856731975 -2.7255688073 0.8101824781
*
