! pbe def2-sv(p) def2/J RI DEFGRID1 loosescf d4 GCP(DFT/SV(P)) printgap
%output
    printlevel normal
end
* xyz 0 1
C 5.2446628493 -0.0109800047 -0.8006735867
C 4.8226203703 -1.3869120485 -1.2900800849
O 3.5720155668 -1.788005917 -0.6964838792
C 2.4532989938 -1.3656379668 -1.2486219033
O 2.3897565235 -0.6680601414 -2.236185799
C 1.2388720851 -1.8970374114 -0.5071848843
C 0.1921437983 -0.7981040551 -0.3954764442
H 0.0287171922 -0.3439363479 -1.382175781
C 0.5926491569 0.317966025 0.5456163934
O -0.2286848823 0.9157900541 1.2152118343
O 1.8713580004 0.5645490436 0.5293553836
C 2.3842940381 1.6133532928 1.3833703609
C 2.7420001473 1.0556749321 2.7506249918
S -1.4093716749 -1.4534550007 0.1931531326
P -2.5268158594 0.3472148171 0.1555662476
S -1.9877525163 1.7412753006 -1.1260036737
O -3.971739623 -0.2554920103 -0.190630512
C -4.2471896638 -0.8304523432 -1.4702080551
O -2.9427825578 0.7703277106 1.624784895
C -2.5707949221 1.9858352385 2.277945278
H 4.5170659391 0.7319633027 -1.1193667096
H 5.313429637 -0.0032751063 0.2833923947
H 6.212279057 0.2391715584 -1.2230643696
H 5.5292501971 -2.1562889292 -0.9791124334
H 4.7084452436 -1.3893152542 -2.3777509672
H 1.5392138322 -2.2678045978 0.4711241999
H 0.8200980811 -2.7223621497 -1.0858522235
H 3.2652155593 1.9838057725 0.8591768911
H 1.6300041748 2.4005736663 1.460310681
H 3.1893649539 1.8419057874 3.3494560128
H 1.8498360435 0.6920300031 3.2551100038
H 3.4483892253 0.2365479864 2.6479255282
H -3.7360731237 -1.7883932815 -1.5716105909
H -3.9271807608 -0.1516033617 -2.2634817913
H -5.3249326221 -0.9678311551 -1.5024133753
H -3.4692147413 2.3536199969 2.7691409756
H -2.209354687 2.7154608987 1.551351611
H -1.7887850548 1.7725619841 3.0038766342
*
