! pbe def2-sv(p) def2/J RI DEFGRID1 loosescf d4 GCP(DFT/SV(P)) printgap
%output
    printlevel normal
end
* xyz 0 1
C 2.7581190667 1.8005687838 -1.9329172806
C 3.417684504 1.9184835969 -0.5731583648
O 3.4531634554 0.6542612419 0.1131121539
P 2.2181643251 0.1092838645 0.9512444719
S 1.3313390688 1.4402155319 2.0729383353
O 2.8345838939 -1.0587899307 1.8122119694
C 3.6612216714 -2.1201092145 1.2698497266
C 5.1306455324 -1.768416002 1.3756750083
S 1.0428402963 -0.8998577908 -0.5286612824
C -0.1762821462 -1.6270396842 0.5980967215
S -1.4948106694 -0.4801815864 1.0781601127
P -2.2113056047 -0.098906579 -0.8979732083
S -2.002638115 -1.5734311624 -2.1674856382
O -1.4778635731 1.1830811081 -1.4414747977
C -1.1349936998 2.3895530044 -0.716122633
C -2.3082926735 3.0258229422 -0.0047508385
O -3.6864263584 0.4307435557 -0.6455592754
C -4.7274918179 -0.3209154943 0.005981553
C -5.3786269984 -1.3219235225 -0.9282022099
H 1.706937961 1.5366379655 -1.8301685331
H 2.8331562843 2.7520811417 -2.4493399222
H 3.2492300688 1.0319337959 -2.5237761974
H 2.8949288948 2.6437267202 0.0593329423
H 4.4672427268 2.2018112663 -0.6663797543
H 3.4179666235 -2.9908954791 1.8816753661
H 3.3706560806 -2.3014283099 0.2315033634
H 5.3596387267 -0.9078595855 0.7534057817
H 5.3838060247 -1.5343309517 2.4061171897
H 5.7216932886 -2.6169818442 1.0452577115
H 0.3071577866 -1.9470280258 1.5189284207
H -0.6149005251 -2.4669922841 0.0599004676
H -0.3428903065 2.1491268812 0.0004512691
H -0.7392165483 3.0403416254 -1.4976035749
H -1.9935166912 3.9870189948 0.3901887187
H -3.1363795258 3.1690005766 -0.6939197184
H -2.634760715 2.4002010023 0.8234034539
H -4.3085430209 -0.8178241563 0.8856181783
H -5.4405962622 0.4425852228 0.3234828998
H -6.2042508437 -1.8041685091 -0.4147741398
H -5.7519040316 -0.8174726576 -1.8154179664
H -4.6607754431 -2.0780548868 -1.2381134503
*
