! pbe def2-sv(p) def2/J RI DEFGRID1 loosescf d4 GCP(DFT/SV(P)) printgap
%output
    printlevel normal
end
* xyz 0 1
C 3.8146416764 0.3093024061 -2.7953774899
C 2.52383106 0.2884009867 -2.0034224889
O 2.7963472568 -0.3372658337 -0.7348781485
P 1.8873448351 -0.1371510874 0.5487642886
S 1.41143436 1.7090473117 0.9755432416
O 2.7460123053 -0.7618016251 1.7121977103
C 3.3808387136 -2.064208492 1.6487621172
C 4.8171017576 -1.9409356995 1.1835821985
S 0.3618898014 -1.6037621506 0.215722708
C -0.6226979159 -1.3472590973 1.7074688767
S -1.5593271182 0.2225586099 1.7533471866
P -2.1431600418 0.4063393914 -0.2647245079
S -0.9241146913 0.8976582647 -1.7308812077
O -3.3587735126 1.4299011325 -0.1579589828
C -3.1885741664 2.8483577662 -0.3058447826
C -2.3972669481 3.4433990592 0.8413391992
O -2.8881336108 -0.9799949234 -0.4139424008
C -3.2933438253 -1.5147844626 -1.6972368149
C -2.3151427241 -2.5757135531 -2.1597854511
H 4.1766359868 -0.7040490115 -2.942902493
H 3.6278688773 0.768450167 -3.7603954744
H 4.5687720478 0.8839130471 -2.2647583129
H 1.7475813504 -0.2880756047 -2.5131733321
H 2.1406113162 1.2983622592 -1.8248221555
H 3.3269343857 -2.4403875777 2.6719537891
H 2.8022488754 -2.7091993743 0.9819590976
H 5.358736752 -1.2530321518 1.8270499083
H 5.2881580797 -2.9180543675 1.2252965604
H 4.8526994652 -1.5678863617 0.163818757
H 0.0232060245 -1.3309496105 2.5839078179
H -1.3258446697 -2.1758684838 1.749576223
H -2.6855107147 3.040665756 -1.2595472893
H -4.2082881394 3.2342260125 -0.3374171828
H -2.3717425735 4.5238179587 0.7432631908
H -2.8500676474 3.1757721462 1.7929883314
H -1.3723889907 3.0681398552 0.8265079642
H -4.2861404081 -1.9307166864 -1.5204746437
H -3.3581246771 -0.6995017096 -2.4226984228
H -1.3375140651 -2.1314011011 -2.3324781933
H -2.2156886217 -3.3510762463 -1.4058109743
H -2.6753304 -3.0134364462 -3.0850398493
*
