! pbe def2-sv(p) def2/J RI DEFGRID1 loosescf d4 GCP(DFT/SV(P)) printgap
%output
    printlevel normal
end
* xyz 0 1
C 1.3837449686 -4.0616816429 0.7516787804
C 1.4815388098 -3.366166887 -0.5930972614
O 1.4480029438 -1.9433200221 -0.3741210741
C 2.1590493185 -1.1547077752 -1.1563979957
O 2.8606591751 -1.5323505162 -2.0666406377
C 1.9645171608 0.2967890752 -0.7652109578
C 0.69769472 0.8739353677 -1.4168812641
H 0.892882959 1.1319281287 -2.4601461301
C 0.2469830763 2.1020179749 -0.6434261048
O -0.8135251391 2.1407429185 -0.0541094362
O 1.1296494265 3.0592630984 -0.6859884278
C 0.8955811781 4.2398070738 0.1154977731
C 1.4087843509 4.0281481501 1.5301832582
S -0.7136852562 -0.2674736181 -1.4835752519
P -1.2316351312 -0.4053649466 0.5927107046
S -0.0677446203 0.1528185535 2.0641701888
O -2.757827764 0.0660931034 0.6827062397
C -3.2402983736 1.3453141357 1.0894977952
O -1.4524945221 -1.9749144976 0.7297338915
C -2.3525237326 -2.7142668435 -0.1095663846
H 0.5027520715 -3.7087386284 1.2816345509
H 1.3122689346 -5.1333138953 0.5994753701
H 2.2592915507 -3.8418827649 1.3561891267
H 0.6297804683 -3.6146410034 -1.2329860145
H 2.4089707327 -3.6109593528 -1.119321172
H 2.823775016 0.8800850173 -1.0940363309
H 1.8724106476 0.3401537253 0.3223155507
H 1.4458486352 5.0276405215 -0.3979977675
H -0.1759164257 4.4547326755 0.1165613665
H 0.8938538164 3.1907314196 1.9988141113
H 2.4740991445 3.816543127 1.5173570282
H 1.2286616385 4.923563029 2.1153589539
H -4.2324243016 1.1665966938 1.4983500213
H -3.2872347914 2.0117069851 0.2305143799
H -2.58444868 1.7729482856 1.8479720652
H -2.1290650468 -2.5235566578 -1.1600215181
H -3.3805456548 -2.4289633303 0.1066681706
H -2.1831757663 -3.7598847443 0.1357057733
*
