! pbe def2-sv(p) def2/J RI DEFGRID1 loosescf d4 GCP(DFT/SV(P)) printgap
%output
    printlevel normal
end
* xyz 0 1
C 3.9856821906 -2.6903534703 1.3030855372
C 2.7770917405 -1.781048266 1.3931336741
O 2.4741010953 -1.3150903515 0.0647087342
C 1.5391698106 -0.4151972278 -0.0802299319
O 0.9450373677 0.1262795767 0.8402441087
C 1.3067097284 -0.0420600338 -1.526674575
C 0.2231100249 1.0220630395 -1.6102360581
H 0.2578595655 1.5255431247 -2.5805408875
C 0.3776368838 2.0769981599 -0.52142614
O -0.5455585919 2.5317760281 0.115531802
O 1.6206571514 2.503966108 -0.4483451989
C 1.9131651318 3.5203682849 0.5322586714
C 3.3233341192 4.019257102 0.2882269652
S -1.4797704192 0.3720804624 -1.5652415369
P -1.6715568962 -0.924779312 0.1061505967
S -0.5678390418 -2.5418667721 0.1715382297
O -1.7276243092 -0.1529817024 1.4804534363
C -2.6558638934 0.9107411831 1.7700274681
O -3.2240169572 -1.2759685174 -0.0819231846
C -3.6790771755 -2.1121971399 -1.1515097247
H 4.2275178549 -3.0619620533 2.293041202
H 3.7639073973 -3.5281533513 0.6493225061
H 4.8353624149 -2.1446306626 0.9042647392
H 2.9581413727 -0.9112823661 2.032898515
H 1.8961067701 -2.3114063157 1.7700748459
H 1.0357178265 -0.9364743547 -2.0903473836
H 2.2451423533 0.3444426478 -1.9282937447
H 1.1715925166 4.3188704131 0.4305270265
H 1.8013540153 3.0694925874 1.5237821706
H 4.0321849268 3.2033365877 0.3912495135
H 3.4039521514 4.4321317822 -0.7127686575
H 3.5577557759 4.7904224691 1.0143255933
H -3.6489992363 0.6525826085 1.4085801784
H -2.3014687044 1.8310274823 1.3064465304
H -2.6474797351 1.0013836762 2.8530509991
H -4.6855094858 -2.4170082342 -0.8759595864
H -3.0292835852 -2.9836673463 -1.2459969786
H -3.6866018603 -1.5481875291 -2.0831562254
*
