! pbe def2-sv(p) def2/J RI DEFGRID1 loosescf d4 GCP(DFT/SV(P)) printgap
%output
    printlevel normal
end
* xyz 0 1
C 5.4892185057 1.4360491234 -1.5355370716
C 3.9826007793 1.2919653944 -1.4581879725
O 3.6863259401 0.2205634369 -0.5442024765
P 2.2656841783 0.0699755747 0.156491413
S 1.6390242852 1.7418361614 0.9680011482
O 2.5306772544 -1.1425227214 1.1261130346
C 2.579537563 -1.0315672386 2.5694508685
C 1.5776274304 -1.9870147897 3.1847852591
S 1.1107268459 -0.828940213 -1.3811447791
C -0.0198794561 -1.8291342805 -0.3632018391
S -1.0139606683 -0.8714438927 0.8006679024
P -2.2767409208 0.1300044398 -0.6007983213
S -2.3091887293 -0.6556938922 -2.3947819452
O -1.7997456904 1.6343553778 -0.6111695484
C -2.2152706682 2.6587630764 0.3262454727
C -1.9247239627 2.2989567138 1.7673463957
O -3.6944516824 0.2256025719 0.1127898729
C -4.6891981404 -0.8061216056 -0.0163554219
C -4.2704358723 -2.0977824984 0.6552468332
H 5.8895362246 1.6864422102 -0.5572298121
H 5.932293806 0.5025248267 -1.869807904
H 5.7358924281 2.225172691 -2.2381923468
H 3.553216016 1.0393059781 -2.4322774809
H 3.5111050075 2.209551726 -1.0880020809
H 3.6022757801 -1.2843430875 2.8542633429
H 2.3657527499 0.0044851254 2.852467842
H 0.5659038644 -1.7161603059 2.8886306819
H 1.7830384849 -3.0041826701 2.8636117123
H 1.6579944926 -1.9311263 4.2654153987
H 0.5547584494 -2.5428078308 0.2211509158
H -0.6715377599 -2.3277925408 -1.0809737509
H -1.63973059 3.5304613711 0.0110720276
H -3.281859073 2.8365473489 0.1738675246
H -0.8597691337 2.1309399264 1.908533206
H -2.2383041715 3.1203997955 2.4036899962
H -2.4680577081 1.3999818537 2.0515606409
H -5.5719604772 -0.3733485485 0.4563287948
H -4.8782004491 -0.9704891607 -1.0816428127
H -5.1043511244 -2.7921644802 0.6431853854
H -3.4353136702 -2.542827868 0.1166525635
H -3.9690097058 -1.9125430131 1.6829928669
*
