! pbe def2-sv(p) def2/J RI DEFGRID1 loosescf d4 GCP(DFT/SV(P)) printgap
%output
    printlevel normal
end
* xyz 0 1
C 2.7498097133 2.1634531694 -2.0485339336
C 3.3135966532 1.2517818106 -0.9784124646
O 2.2903898848 1.0453025878 0.0314282778
P 2.0973967646 -0.3213302011 0.7915401822
S 0.6375693727 -0.1429897148 2.0818765573
O 3.565626779 -0.5767733461 1.3425387126
C 4.085182247 -1.8425303415 1.7921826824
C 3.2204988346 -2.4861445332 2.8555174941
S 1.8843223187 -1.8533097151 -0.6811355819
C 0.113053989 -1.6886378408 -0.945505713
S -0.3010412449 -0.0591891528 -1.6677677513
P -2.1496583434 0.304670004 -0.7272533705
S -2.6956499781 -0.9064975427 0.7213964711
O -3.0934355628 0.2499337829 -1.9974864573
C -4.513169416 0.0276958851 -1.8915917074
C -5.2172487015 1.2119118706 -1.2640021878
O -2.1305268905 1.8718830528 -0.4550776529
C -1.2962657973 2.5489656021 0.4981932823
C -1.8946482071 2.5139944192 1.8902686044
H 2.440143586 3.1073477254 -1.6094014375
H 3.5145202238 2.3479821588 -2.7959290605
H 1.8886528907 1.6978017493 -2.5220483906
H 4.1709777685 1.700735321 -0.4743295766
H 3.6012312234 0.2819912484 -1.3941364893
H 4.1817565092 -2.4983241946 0.9227316651
H 5.0732412254 -1.5892916645 2.1803982148
H 3.0737777783 -1.8046413075 3.6903524776
H 2.2438129097 -2.7386799888 2.4443250976
H 3.6988204343 -3.3930439782 3.2109839208
H -0.4192585746 -1.7887104374 0.005523029
H -0.1682041909 -2.4748166921 -1.6416194822
H -4.8293817874 -0.1364445333 -2.9223546948
H -4.6786345079 -0.8780912671 -1.2993069334
H -6.2897766652 1.045539372 -1.2782485779
H -4.8888204586 1.3264076605 -0.2314287404
H -4.9814468457 2.1217484456 -1.8095396958
H -0.2974136342 2.1005690977 0.4957126995
H -1.2370964837 3.5701708947 0.1167856222
H -1.9162873041 1.4927834813 2.266818319
H -1.281280536 3.1116629276 2.5568597523
H -2.9068325539 2.908897597 1.8759543664
*
