! r2scan-3c def2/J RI DEFGRID2 scfconv6 printgap
%output
    printlevel normal
end
* xyz 0 1
C 4.6468709616 -1.3957575594 -0.8828381723
C 4.619575091 0.072698238 -0.5111691581
O 3.4669350548 0.4092022655 0.279999603
P 1.9868248058 0.3937056974 -0.3100994587
S 1.8820997495 1.0353270515 -2.1652946231
O 1.2309317676 1.2182920682 0.8088606206
C 1.3159866107 2.6578767025 0.8642838366
C 0.5050222129 3.1160806071 2.0571973147
S 1.2828916581 -1.5373259554 0.0991192588
C 0.0492875059 -1.7218206162 -1.2358551455
S -1.612249681 -2.0338313144 -0.6098927695
P -2.0099341988 -0.0938620396 0.1721052887
S -1.5018355556 1.4183383154 -0.9628769699
O -1.2937953717 0.0140599086 1.5695927376
C -1.4726857489 -0.9564127314 2.6345557359
C -0.2965544984 -0.8276871973 3.5793951738
O -3.5324676062 -0.2092196598 0.614802458
C -4.6053872197 -0.7176179791 -0.2003735147
C -4.7091698882 -0.017747684 -1.538916166
H 5.5910101609 -1.6251460058 -1.3661994485
H 4.5338939798 -2.013052608 0.0047387089
H 3.8342690114 -1.6175183619 -1.573344552
H 4.6132681846 0.6964769831 -1.4108025698
H 5.4619079357 0.3448262564 0.1262195839
H 2.3680955848 2.9418568481 0.9545465801
H 0.9129661941 3.0591627898 -0.0721824661
H 0.9199673957 2.6995064796 2.9702926084
H 0.5241610403 4.1997961162 2.1075012241
H -0.5226934498 2.7780979926 1.9477136818
H 0.3166401123 -2.5950104687 -1.8252735486
H 0.0560840426 -0.8143039368 -1.8465561301
H -2.4184456403 -0.7313164423 3.1306805481
H -1.5213634846 -1.9566445057 2.1935545535
H 0.632267513 -1.0177835415 3.0469986629
H -0.2605274438 0.1744726052 3.9966525498
H -0.4044787264 -1.5501937891 4.3817909234
H -4.448609947 -1.7910862074 -0.3360643435
H -5.4934259504 -0.5447543197 0.4101001646
H -5.5774182633 -0.3884953164 -2.0739553261
H -4.8022005739 1.0569510073 -1.4001333935
H -3.8172312703 -0.2091415974 -2.1341442312
*
