! r2scan-3c def2/J RI DEFGRID2 scfconv6 printgap
%output
    printlevel normal
end
* xyz 0 1
C 5.4536066132 -1.8158061044 -0.8893639587
C 4.2208331757 -2.6981389145 -1.0042329144
O 3.1889373585 -2.0393220911 -1.7656692197
C 2.3642349485 -1.2313937175 -1.1366321436
O 2.3756084796 -1.0243584707 0.0594103383
C 1.3869106636 -0.5724239955 -2.08778163
C 0.3195342341 0.1625032411 -1.2888798941
H -0.2863388574 0.7991580866 -1.9414646024
C 0.9866784403 1.0571291784 -0.2547069698
O 1.9377088427 1.7536069471 -0.5302165731
O 0.3634881817 1.0416192822 0.9024220158
C 0.9136711265 1.7808576972 2.009883296
C 1.4669118934 0.8047523225 3.0331483761
S -0.8052330063 -1.0534740647 -0.5049772924
P -2.2003308501 0.2739076787 0.3176592315
S -2.3137594994 2.0945021431 -0.4278272826
O -3.5887645024 -0.5178289097 0.1726828484
C -4.2882351609 -0.5812355791 -1.0743642492
O -1.9935095043 0.1341277173 1.8854085868
C -2.8773241934 0.8192007818 2.789040001
H 6.2296888795 -2.3494606509 -0.3508652386
H 5.8185139143 -1.551406339 -1.877886829
H 5.2109354534 -0.9034963158 -0.3482106566
H 3.8227408396 -2.9410305105 -0.0150398703
H 4.4327253076 -3.6084738414 -1.564701887
H 0.9478047268 -1.3226318051 -2.7438281407
H 1.9458207611 0.1448188522 -2.6928939267
H 1.6904641957 2.4453516763 1.6216022745
H 0.0860079405 2.3676226972 2.4137462309
H 1.8828391536 1.3550994577 3.8702052292
H 0.6756804681 0.1472321639 3.3832900182
H 2.2438915431 0.1971324761 2.574407312
H -3.794490962 -1.2882509813 -1.7401342853
H -4.3191797606 0.4077466772 -1.5356768501
H -5.292623767 -0.91915871 -0.8323877331
H -3.8427001762 0.315425495 2.8143071142
H -3.0106011904 1.856028317 2.4741216272
H -2.3943366556 0.7749401423 3.7620364507
*
