! r2scan-3c def2/J RI DEFGRID2 scfconv6 printgap
%output
    printlevel normal
end
%cpcm
    smd true
    smdsolvent "water"
end
* xyz 0 1
C 3.0826332321 0.5984924286 3.1155190326
C 1.6798595052 0.2274599936 2.6848423381
O 1.467197996 0.4978931079 1.2804804773
P 2.1968225286 -0.3462618178 0.1598026872
S 2.6056805603 -2.2158734172 0.5985862912
O 3.4530968348 0.5662442496 -0.168445801
C 4.4848916883 0.135135795 -1.078665496
C 5.723558079 0.9645648347 -0.806101947
S 0.9286830523 -0.0396884913 -1.5047556396
C -0.1684552487 -1.4473076415 -1.1760611301
S -1.2078659287 -1.2044041267 0.2809077517
P -2.3880050259 0.3766190911 -0.5489276379
S -2.7563647755 0.2565053318 -2.4628636975
O -1.6204084912 1.7023297406 -0.1737262672
C -1.3492789217 2.106539481 1.1901212942
C -2.3579782391 3.1383956351 1.6503729688
O -3.657717141 0.4312330262 0.4057832442
C -4.8405506355 -0.354568652 0.1667681639
C -4.5858890904 -1.8414724985 0.3017831567
H 3.1771739951 0.4678234602 4.1889126827
H 3.8034176477 -0.0473894704 2.615451395
H 3.2958931862 1.631454312 2.8538784674
H 0.9261901389 0.8348189631 3.1872015755
H 1.4846882629 -0.834291492 2.8654857795
H 4.6713632026 -0.9318102759 -0.9148825579
H 4.1221181434 0.2812835868 -2.0997618416
H 6.5035672506 0.6779368935 -1.5037155787
H 5.4970939699 2.0192612371 -0.9322398924
H 6.0717127934 0.797323411 0.2091939322
H 0.4298954697 -2.3400173294 -0.9931348667
H -0.7989442427 -1.5592763739 -2.0580480428
H -1.3663938028 1.2200122524 1.83066857
H -0.338090595 2.5178037159 1.1581516288
H -2.0880875656 3.4811494708 2.6443725563
H -2.3614364153 3.9832754702 0.9672475545
H -3.3538953967 2.7044817847 1.677261564
H -5.54480689 0.0024883096 0.9195206393
H -5.2122563039 -0.1179293658 -0.8346530883
H -4.1061051174 -2.0609403436 1.2523592252
H -5.5307828181 -2.3720964692 0.2432792915
H -3.9401016525 -2.1841981958 -0.5052176759
*
