! pbe def2-sv(p) def2/J RI DEFGRID1 loosescf d4 GCP(DFT/SV(P)) printgap
%output
    printlevel normal
end
* xyz 0 1
C 4.774253008 -3.6431455981 -1.737055255
C 3.7107530569 -3.0361974833 -0.8434578627
O 3.0491408252 -1.9910186558 -1.5851621739
C 2.3074024914 -1.1332902428 -0.9306714981
O 2.1255318047 -1.1557361483 0.2726555474
C 1.7077037552 -0.0770437667 -1.8336165147
C 0.4798896279 0.5146220386 -1.1547490128
H 0.1364806446 1.4130291503 -1.6744831263
C 0.7701846396 0.8809306082 0.2870321792
O 0.0196989086 0.5753097922 1.1981878462
O 1.8248012415 1.6365545248 0.4044976816
C 2.1482835359 2.1540896504 1.7135303163
C 1.3686500209 3.4289582733 1.9909637207
S -0.8937217835 -0.6943171309 -1.1508644635
P -2.1932566921 0.1622269271 0.2925125028
S -2.3270397757 2.1222177757 0.4349746386
O -3.5650823655 -0.4459507564 -0.2903890111
C -4.1176838123 0.0149898934 -1.5245225902
O -2.282299723 -0.7366554491 1.5983404272
C -1.8663453539 -0.3701145136 2.9132071859
H 4.3178188301 -4.0373497745 -2.6396464097
H 5.5059981967 -2.8902364592 -2.0136378625
H 5.2717947907 -4.4477091676 -1.2060148027
H 4.1355804228 -2.6010115938 0.0663506119
H 2.9564562072 -3.7741182913 -0.5543987975
H 1.4535499953 -0.5147054723 -2.7975633114
H 2.4538334332 0.7067594301 -1.9818500734
H 1.9250456544 1.383095829 2.4553296569
H 3.2210016457 2.3415146248 1.6699547488
H 0.2981218999 3.2329244545 1.9591235642
H 1.6286462769 3.802529061 2.9756037475
H 1.6039560973 4.183136574 1.2455117179
H -3.5263787905 -0.3529378054 -2.3636325432
H -4.144714683 1.1068343005 -1.5378912478
H -5.1263631286 -0.388490819 -1.561403823
H -2.5855211244 -0.8295435826 3.5882620375
H -1.873363392 0.714667034 3.028120293
H -0.8627095567 -0.7511894547 3.0948940921
*
