  18
  -26.5574980800000       8.825241229554368E-002 !gc
 C         -3.1823089029       -0.1755281736        0.0065381271
 O         -1.9635363522       -0.8900687993       -0.0041999039
 C         -0.7891104091       -0.1808976435       -0.0018387585
 C         -0.7004868653        1.2059020483        0.0032069286
 C          0.5542434107        1.7974191280        0.0008296761
 C          1.7051307148        1.0412365934       -0.0071854253
 C          1.6261677162       -0.3563843122       -0.0109842838
 C          0.3675051354       -0.9516075057       -0.0113469279
 N          2.7635523155       -1.1239870932        0.0535988331
 H         -3.2814724670        0.4521468246       -0.8834955367
 H         -3.2718618900        0.4414400079        0.9049042256
 H         -3.9604258823       -0.9357757711        0.0061545270
 H         -1.5812773192        1.8263113013        0.0077800007
 H          0.6243408187        2.8752709704        0.0023291561
 H          2.6726506460        1.5198645692       -0.0081344922
 H          0.2663232666       -2.0261158980       -0.0153067223
 H          3.6198822037       -0.6790062277       -0.2307664911
 H          2.6676429352       -2.0890245461       -0.2140136144
  18
  -26.5574974400000       8.819266405158814E-002 !md1
 C         -3.1823081357       -0.1755430018        0.0073363213
 O         -1.9635107852       -0.8900790744       -0.0048304671
 C         -0.7891372211       -0.1808805794       -0.0021318686
 C         -0.7004788049        1.2059212520        0.0029257773
 C          0.5542457385        1.7974188054        0.0006995320
 C          1.7051355167        1.0412537600       -0.0070056992
 C          1.6262119195       -0.3563755585       -0.0108595275
 C          0.3675094846       -0.9515498046       -0.0114940222
 N          2.7635119368       -1.1240148578        0.0537721708
 H         -3.9604170172       -0.9357678394        0.0068970765
 H         -3.2821736153        0.4528605609       -0.8820696981
 H         -3.2712196230        0.4406815700        0.9062910853
 H         -1.5812229707        1.8263990487        0.0073932511
 H          0.6243812764        2.8752676240        0.0024284550
 H          2.6725982896        1.5199524463       -0.0078006528
 H          0.2662926229       -2.0260603813       -0.0155791534
 H          2.6672879254       -2.0893845161       -0.2125290635
 H          3.6199814735       -0.6795364862       -0.2309727834
  18
  -26.5574974400000       8.819266405158814E-002 !mtd7
 C         -3.1822846644       -0.1755042171        0.0067921232
 O         -1.9635404109       -0.8900668565       -0.0044672035
 C         -0.7891007663       -0.1808839411       -0.0019501226
 C         -0.7004919415        1.2059009690        0.0032068496
 C          0.5542512074        1.7974164890        0.0007369177
 C          1.7051171006        1.0412258043       -0.0072025707
 C          1.6261724740       -0.3564310056       -0.0109265361
 C          0.3674967066       -0.9516333876       -0.0114221331
 N          2.7635396379       -1.1239116851        0.0536718922
 H         -3.2721755821        0.4401816849        0.9060275154
 H         -3.9604057934       -0.9357223693        0.0050493725
 H         -3.2811750503        0.4534357090       -0.8823383869
 H         -1.5812701476        1.8263304728        0.0079617719
 H          0.6243605202        2.8752662971        0.0024208974
 H          2.6726434703        1.5198305172       -0.0080541263
 H          0.2662571002       -2.0261340099       -0.0154094203
 H          2.6675811375       -2.0893288833       -0.2124364341
 H          3.6199970690       -0.6792379921       -0.2307233559
  18
  -26.5574974200000       8.819079757107322E-002 !gc
 C         -3.1822996120       -0.1754447300        0.0052076886
 O         -1.9635455318       -0.8900821134       -0.0033130987
 C         -0.7891125446       -0.1809096323       -0.0012149183
 C         -0.7005067767        1.2058834200        0.0037384973
 C          0.5542275205        1.7974209104        0.0008655985
 C          1.7051083314        1.0412201145       -0.0074082017
 C          1.6261628607       -0.3564176862       -0.0110733258
 C          0.3675182118       -0.9516434498       -0.0110119146
 N          2.7636427677       -1.1239405326        0.0531545957
 H         -3.2799294931        0.4520591227       -0.8851002230
 H         -3.2734521302        0.4417245107        0.9033202260
 H         -3.9605064339       -0.9356503667        0.0036578980
 H         -1.5812882035        1.8262761802        0.0085375841
 H          0.6243516623        2.8752640711        0.0024397237
 H          2.6726151323        1.5198361450       -0.0085991814
 H          0.2662854948       -2.0261483536       -0.0148745118
 H          2.6674517952       -2.0891114388       -0.2139145347
 H          3.6196733408       -0.6792026772       -0.2325382286
  18
  -26.5574973900000       8.818799792420025E-002 !md6
 C         -3.1822753879       -0.1754237450        0.0055202656
 O         -1.9635507547       -0.8901176996       -0.0034746077
 C         -0.7890727785       -0.1808882274       -0.0013562207
 C         -0.7005301756        1.2058988853        0.0034660537
 C          0.5542207581        1.7974071551        0.0008557284
 C          1.7051035320        1.0412295799       -0.0072310303
 C          1.6261843076       -0.3564045671       -0.0110242259
 C          0.3675219693       -0.9516296410       -0.0110820700
 N          2.7635927661       -1.1239462419        0.0531607415
 H         -3.2722004012        0.4432685682        0.9027364352
 H         -3.9604708254       -0.9355973527        0.0062290766
 H         -3.2810282274        0.4505778432       -0.8856468898
 H         -1.5812781074        1.8263536501        0.0081056628
 H          0.6243633180        2.8752557654        0.0026689294
 H          2.6725945912        1.5198815585       -0.0081395540
 H          0.2662964890       -2.0261287693       -0.0150595731
 H          3.6197548569       -0.6796266522       -0.2326747839
 H          2.6673009507       -2.0892524081       -0.2133493386
  18
  -26.5574973300000       8.818239889674720E-002 !md6
 C         -3.1821674521       -0.1756931443       -0.0277750882
 O         -1.9635625674       -0.8900436080        0.0002633757
 C         -0.7891009597       -0.1808849319       -0.0015944276
 C         -0.7004027322        1.2057783702       -0.0208457314
 C          0.5543053583        1.7973299364       -0.0157791324
 C          1.7050696987        1.0413081875        0.0082532398
 C          1.6260530897       -0.3562227529        0.0261951060
 C          0.3673748066       -0.9514371081        0.0242206618
 N          2.7637933878       -1.1243236428       -0.0224566779
 H         -3.9603420692       -0.9358675475       -0.0233887034
 H         -3.2654020520        0.4300955247       -0.9343652303
 H         -3.2875748121        0.4630015980        0.8536504787
 H         -1.5811098918        1.8260789361       -0.0383397097
 H          0.6244802481        2.8750954050       -0.0283870679
 H          2.6725692465        1.5199513472        0.0108130826
 H          0.2660914162       -2.0258373205        0.0389348325
 H          3.6183187873       -0.6767038854        0.2630736465
 H          2.6659445580       -2.0868835852        0.2532017862
  18
  -26.5573871700000       7.847943691644393E-002 !mtd10
 C         -2.6218514674       -1.4567465854       -0.0040857855
 O         -2.2180088778       -0.1024888127       -0.0160830818
 C         -0.8772987859        0.1832678812       -0.0084563777
 C         -0.5523551427        1.5401076598       -0.0300784489
 C          0.7743621958        1.9224201055       -0.0227447693
 C          1.7840508309        0.9801354124        0.0071125948
 C          1.4706378128       -0.3796136186        0.0290866054
 C          0.1274487896       -0.7689646044        0.0239936374
 N          2.4623902105       -1.3303083425       -0.0131394947
 H         -2.2845037525       -1.9619795403        0.9051904053
 H         -2.2494900464       -1.9884459632       -0.8839929852
 H         -3.7091664509       -1.4316662932       -0.0253618744
 H         -1.3513162910        2.2634454786       -0.0514734962
 H          1.0239560681        2.9728462165       -0.0376656465
 H          2.8183554154        1.2889180290        0.0112304231
 H         -0.1026472151       -1.8226893824        0.0411565539
 H          3.3821984649       -1.0269156899        0.2588878024
 H          2.2104494498       -2.2587001808        0.2815704813
  18
  -26.5573871200000       7.847528469977239E-002 !mtd8
 C         -2.6218086278       -1.4567709396       -0.0063596232
 O         -2.2180207854       -0.1025000347       -0.0143422876
 C         -0.8772752293        0.1832723159       -0.0075724251
 C         -0.5523831394        1.5401425269       -0.0292245743
 C          0.7743194432        1.9224302099       -0.0226053541
 C          1.7840239597        0.9801266297        0.0067127624
 C          1.4706713968       -0.3796031793        0.0288228116
 C          0.1274545902       -0.7689524033        0.0242863182
 N          2.4623566647       -1.3303820453       -0.0137116358
 H         -2.2830873148       -1.9651758106        0.9006345038
 H         -2.2506595439       -1.9853307925       -0.8886425771
 H         -3.7091149983       -1.4316547089       -0.0258275026
 H         -1.3513933724        2.2634300721       -0.0501716422
 H          1.0239127110        2.9728308917       -0.0378508910
 H          2.8182877962        1.2890063620        0.0102576409
 H         -0.1026010120       -1.8226838168        0.0414743372
 H          2.2106808605       -2.2584438220        0.2822545636
 H          3.3823684761       -1.0264269998        0.2568775403
  18
  -26.5573870900000       7.847279347486588E-002 !md5
 C         -2.6218109204       -1.4566850581        0.0095159919
 O         -2.2180928680       -0.1023593669       -0.0015829476
 C         -0.8773393261        0.1833494125       -0.0025840564
 C         -0.5524733170        1.5403697333       -0.0016002839
 C          0.7743020337        1.9225976454       -0.0041449790
 C          1.7841366642        0.9800163609       -0.0091051952
 C          1.4707980019       -0.3799294033       -0.0103761772
 C          0.1275852598       -0.7692260113       -0.0100534018
 N          2.4620355830       -1.3297396137        0.0566752377
 H         -2.2767245003       -1.9796626941       -0.8867424021
 H         -3.7092896617       -1.4314234742        0.0210034204
 H         -2.2569081035       -1.9708426591        0.9028835470
 H         -1.3515116490        2.2639303828        0.0005910816
 H          1.0238112655        2.9731495610       -0.0048819717
 H          2.8184576059        1.2887050675       -0.0095752683
 H         -0.1024234695       -1.8231205647       -0.0110460611
 H          3.3840819896       -1.0313707668       -0.2133124057
 H          2.2121706734       -2.2631571647       -0.2235828934
  18
  -26.5573870800000       7.847196308443326E-002 !md8
 C         -2.6218848729       -1.4567998234       -0.0085032694
 O         -2.2180245977       -0.1024557320       -0.0130514929
 C         -0.8773032728        0.1832689896       -0.0065562302
 C         -0.5523700226        1.5401176536       -0.0283017071
 C          0.7743443562        1.9224281628       -0.0224607241
 C          1.7840679178        0.9801302521        0.0061365861
 C          1.4706614528       -0.3795971605        0.0286472833
 C          0.1274667565       -0.7689578840        0.0249388709
 N          2.4623735287       -1.3303587939       -0.0143888428
 H         -3.7091029883       -1.4316206417       -0.0331600978
 H         -2.2874000612       -1.9661774808        0.8994828581
 H         -2.2465778552       -1.9843109775       -0.8895857929
 H         -1.3513470624        2.2634618539       -0.0488354772
 H          1.0239176739        2.9728439913       -0.0378326316
 H          2.8183776879        1.2888975922        0.0089027769
 H         -0.1025690632       -1.8226853852        0.0426215739
 H          3.3824025016       -1.0267592226        0.2566768344
 H          2.2107581996       -2.2584696692        0.2815529911
  18
  -26.5573870600000       7.847030232933920E-002 !mtd8
 C         -2.6219394630       -1.4566767256       -0.0035371799
 O         -2.2180150285       -0.1023580583       -0.0161409002
 C         -0.8772796491        0.1831758747       -0.0088602339
 C         -0.5523541420        1.5400445595       -0.0304495203
 C          0.7743560899        1.9223741598       -0.0227435871
 C          1.7840445267        0.9801177553        0.0073944391
 C          1.4706269033       -0.3796495718        0.0290787593
 C          0.1274302161       -0.7690741759        0.0235447616
 N          2.4625391195       -1.3301747237       -0.0128681261
 H         -3.7093506578       -1.4315973755       -0.0222109293
 H         -2.2825382648       -1.9620604529        0.9049234408
 H         -2.2515779028       -1.9881306079       -0.8844713788
 H         -1.3512810716        2.2633864118       -0.0520993146
 H          1.0238893511        2.9728026344       -0.0378355115
 H          2.8183599597        1.2889124147        0.0119206538
 H         -0.1025844736       -1.8228673583        0.0403635872
 H          2.2102322500       -2.2589498856        0.2803064054
 H          3.3820226019       -1.0271075695        0.2605582828
  18
  -26.5573865900000       7.843128470440477E-002 !gc
 C         -2.6217973814       -1.4565666691        0.0146707438
 O         -2.2180580592       -0.1023694594       -0.0050171709
 C         -0.8773272188        0.1832464369       -0.0048667461
 C         -0.5525257373        1.5403474426       -0.0038154545
 C          0.7742225555        1.9225782145       -0.0044273859
 C          1.7840660459        0.9799785926       -0.0078740614
 C          1.4708219403       -0.3799656733       -0.0098661170
 C          0.1275804593       -0.7692874316       -0.0111721176
 N          2.4620666404       -1.3297178509        0.0580883962
 H         -2.2800883277       -1.9842989496       -0.8801723527
 H         -3.7093566011       -1.4311573197        0.0299952794
 H         -2.2537933128       -1.9658480518        0.9095406739
 H         -1.3515895790        2.2638678476       -0.0027501871
 H          1.0237171014        2.9731258001       -0.0048371622
 H          2.8183989513        1.2887294153       -0.0067427914
 H         -0.1024095386       -1.8231659969       -0.0126717125
 H          2.2131678452       -2.2627465555       -0.2243299318
 H          3.3845131308       -1.0305129753       -0.2096991295
