  9
        -13.48615714
 C         -2.2762896674       -0.3325347955       -0.2635643407
 C         -1.2360777931        0.0383813970        0.4614933086
 C         -0.0864014096        0.8072909983       -0.0828605083
 Cl         1.4096626658       -0.2183270105       -0.0320902242
 H         -3.0935334476       -0.8861642131        0.1633064168
 H         -2.3524866434       -0.0886544760       -1.3097010721
 H         -1.1653491873       -0.2241584160        1.5075927525
 H         -0.2314058967        1.0808931462       -1.1256705277
 H          0.1431551472        1.6828323651        0.5220334151
  9
        -13.48489258
 C         -1.8372246111       -0.6343268042       -0.1313664179
 C         -1.3617301483        0.5337248150        0.2535114604
 C          0.0702738525        0.9430663001        0.3259184550
 Cl         1.2166485318       -0.3439364867       -0.1799374264
 H         -2.8936292456       -0.8333447757       -0.1486251920
 H         -1.1910201894       -1.4371064392       -0.4438680022
 H         -2.0291888612        1.3268642384        0.5635385680
 H          0.2594295763        1.7941506896       -0.3297778154
 H          0.3421756181        1.2080319457        1.3486100814
