! pbe def2-sv(p) def2/J RI DEFGRID1 loosescf d4 GCP(DFT/SV(P)) printgap
%output
    printlevel normal
end
* xyz 0 1
C 4.2025231539 1.1436964224 -1.731602196
C 2.8529637234 0.4593634159 -1.6722702447
O 2.1306325763 0.8491929382 -0.4787447913
P 2.1217888924 0.0159585883 0.8608469957
S 1.0463413289 0.883774726 2.2441806987
O 3.6671334454 -0.1585155941 1.1843489178
C 4.1501213826 -0.5372990942 2.4860406151
C 3.733031756 -1.9416648642 2.8708486852
S 1.4981916499 -1.9441234695 0.2910274006
C -0.2570867293 -1.5747587105 0.171919401
S -0.6539257761 -0.7208277223 -1.406723299
P -2.4028422054 0.2837074895 -0.7486945948
S -3.3958712179 1.2143095462 -2.1555748792
O -1.9599975618 1.1515086518 0.5002999543
C -1.7949486953 2.5770474793 0.4077993506
C -0.6332891419 2.9642418962 -0.4846497109
O -3.1687571148 -0.8360759104 0.0804340305
C -3.8074467248 -1.9462222345 -0.585171541
C -5.2710778285 -1.6513231212 -0.849205799
H 4.8286392215 0.8155658729 -0.9063473894
H 4.6849213397 0.8910610886 -2.6706025215
H 4.0773421526 2.221357087 -1.6718051382
H 2.9580912616 -0.6289912988 -1.6843477585
H 2.2062430391 0.7713987245 -2.4948037931
H 5.233803349 -0.4502223793 2.3958186785
H 3.7787444364 0.1888350564 3.215537911
H 3.9947724624 -2.6442212545 2.0836256395
H 4.2369940879 -2.2246779549 3.7894462525
H 2.6572190117 -1.981195717 3.0336131258
H -0.5507953629 -0.9285824876 1.0018966862
H -0.7787953865 -2.5275977032 0.1987373834
H -2.7267901837 3.0099273349 0.0315855852
H -1.6255512908 2.8856192907 1.4407001645
H 0.2904562095 2.5191698626 -0.1215957985
H -0.8164912353 2.6194881216 -1.5024127189
H -0.5297730023 4.0444002853 -0.489796346
H -3.279310009 -2.1631053738 -1.5201320146
H -3.6942630511 -2.7848210276 0.1051500689
H -5.3692178844 -0.8148018531 -1.5374982023
H -5.7392920359 -2.527337674 -1.2864113622
H -5.7728052228 -1.3991036966 0.080697093
*
