  17
        -28.17711131
 C          2.3037018478       -1.4635888081       -0.3870628903
 C          2.1398503414       -0.0722503423        0.2134729286
 C          0.8036064428        0.5640420001       -0.1607307161
 H          0.6415819314        0.5126849283       -1.2440204770
 C          0.6796731894        2.0040960638        0.3203171718
 O         -0.2086139476       -0.2515942124        0.4745569096
 N         -1.4528790461       -0.2331698610       -0.0249332549
 O         -1.6791187850        0.4588265790       -0.9725744336
 O         -2.2204588499       -0.9418939808        0.5548663707
 H          2.2458901535       -1.4231901794       -1.4723729393
 H          1.5265593066       -2.1304302091       -0.0217949291
 H          3.2681353851       -1.8781781581       -0.1092682267
 H          2.9335405787        0.5818064288       -0.1447529255
 H          2.2002603431       -0.1298014050        1.3000913644
 H         -0.2785598977        2.4247144104        0.0244284463
 H          0.7684799166        2.0421621286        1.4025315508
 H          1.4688561374        2.6008304008       -0.1238871141
  17
        -28.17639011
 C          1.7079018631       -1.6255694276       -0.1552068790
 C          1.9743307111       -0.1626829708        0.1833834137
 C          0.8096917339        0.7506590800       -0.2023293268
 H          0.5662773857        0.6235000426       -1.2629223732
 C          1.0840796673        2.2131644355        0.1157285979
 O         -0.3529629613        0.3660390788        0.5677124191
 N         -1.3546198523       -0.3039089158       -0.0244963521
 O         -2.2381832691       -0.6013366024        0.7231371145
 O         -1.2889694145       -0.5364584246       -1.1940746417
 H          1.4521619649       -1.7391843288       -1.2068028594
 H          0.8895990064       -2.0236875744        0.4428134800
 H          2.5914065331       -2.2223227222        0.0514060497
 H          2.8554034425        0.1832965885       -0.3553688175
 H          2.1587309477       -0.0596097556        1.2530824892
 H          1.9500558884        2.5474716597       -0.4451943304
 H          0.2291564920        2.8262879477       -0.1544956640
 H          1.2767414137        2.3293820245        1.1779343001
  17
        -28.17629789
 C          1.9338015324       -1.4531900600       -0.5639741700
 C          2.0499962131       -0.0944287070        0.1180277475
 C          0.7841002084        0.7456703617       -0.0493249574
 H          0.5196737999        0.8238822245       -1.1095172480
 C          0.9072364525        2.1290387577        0.5739954362
 O         -0.2915869093        0.0516670058        0.6255817571
 N         -1.3839640126       -0.3210094119       -0.0590086988
 O         -1.4686512322       -0.0433852048       -1.2178114835
 O         -2.1816448898       -0.9168477661        0.6015350865
 H          2.8699714131       -1.9963704989       -0.4759858709
 H          1.7010697835       -1.3360427892       -1.6204924498
 H          1.1519882323       -2.0532045978       -0.1021077517
 H          2.8786187423        0.4651010395       -0.3137540174
 H          2.2391015127       -0.2303403500        1.1828905173
 H         -0.0150129808        2.6883182132        0.4415513329
 H          1.1143252883        2.0380714501        1.6361218269
 H          1.7167626218        2.6694518726        0.0954759439
  17
        -28.17619509
 C          2.8014454170       -1.0577009880       -0.1132852162
 C          1.4611651843       -0.6904291799        0.5117837847
 C          0.7398361078        0.4095350172       -0.2709534754
 H          0.5680674405        0.0773427172       -1.3019449806
 C          1.4540324845        1.7506083531       -0.2482695355
 O         -0.5527884937        0.6564090499        0.3339609680
 N         -1.5809902848       -0.1447013558        0.0125964220
 O         -2.6076431600        0.1420211696        0.5512018356
 O         -1.3904103898       -1.0382434037       -0.7575592853
 H          3.5005515026       -0.2295809109       -0.0551472009
 H          2.6706122769       -1.3360546980       -1.1558448287
 H          3.2300869527       -1.9037861719        0.4159625790
 H          1.6040656074       -0.3522529917        1.5391232599
 H          0.8239240888       -1.5778358632        0.5295982688
 H          1.6555333580        2.0463327408        0.7766353218
 H          2.3865469951        1.6759578322       -0.7957133936
 H          0.8306060428        2.5076707415       -0.7146421961
  17
        -28.17618730
 C          3.1283753828       -0.7137500478       -0.3724526292
 C          1.8898162204       -0.6158085367        0.5098909746
 C          0.7364821825        0.1025007445       -0.1897337037
 H          0.5573862458       -0.3370933734       -1.1784665213
 C          0.9361730305        1.6058843606       -0.3147860291
 O         -0.4279395605       -0.1660657240        0.6284636029
 N         -1.6434724234       -0.0918394475        0.0596707604
 O         -2.5440314002       -0.3360460921        0.8046275210
 O         -1.7154391995        0.1946685271       -1.0975469501
 H          3.5317397381        0.2699448214       -0.5924414525
 H          2.8927987707       -1.2103375044       -1.3102222602
 H          3.8948234282       -1.2891428885        0.1380503316
 H          2.1246547261       -0.0876193305        1.4336622491
 H          1.5494696734       -1.6179387186        0.7744302271
 H          1.8366092246        1.8043053536       -0.8849884519
 H          0.0952482799        2.0601159271       -0.8337388226
 H          1.0305293644        2.0499826098        0.6725049075
  17
        -28.17597313
 C          2.3032483299       -1.1113867463        0.1230947058
 C          1.5926133200       -0.1536218847       -0.8272228427
 C          0.6615496564        0.8306610511       -0.1116293264
 H          0.1684570686        1.4598898784       -0.8627402562
 C          1.3485600146        1.6925380706        0.9352115546
 O         -0.3713922527        0.1070327113        0.5976548387
 N         -1.4495290823       -0.3082637595       -0.0828339285
 O         -1.5175255162       -0.0673333220       -1.2517472352
 O         -2.2507802363       -0.8914025564        0.5845880312
 H          2.8305935243       -1.8703775027       -0.4479608345
 H          1.5875444983       -1.6075789117        0.7747931576
 H          3.0258118509       -0.5840929446        0.7379960954
 H          1.0015926303       -0.7222560842       -1.5492000252
 H          2.3233467930        0.4288430358       -1.3872776856
 H          0.6512798982        2.4251073387        1.3303468103
 H          1.6999110727        1.0733940687        1.7535712017
 H          2.1883767668        2.2072424361        0.4814022224
  17
        -28.17590355
 C          2.6260586059       -0.8795992294        0.6209887208
 C          2.0005208841       -0.3575848855       -0.6674877993
 C          0.7294990644        0.4611091566       -0.4369358055
 H          0.3369041350        0.8073446073       -1.4010274084
 C          0.9085990848        1.6505188580        0.4974032287
 O         -0.2377710442       -0.4607663470        0.1193114120
 N         -1.5420245709       -0.1880118666       -0.0323530146
 O         -1.8545416919        0.8064502776       -0.6165729381
 O         -2.2688253731       -1.0052622289        0.4484218575
 H          3.4500413330       -1.5461115923        0.3829636797
 H          1.8902231272       -1.4332668624        1.1980320269
 H          3.0113580040       -0.0657041830        1.2272937006
 H          1.7444589073       -1.2009969529       -1.3101536390
 H          2.7108331981        0.2736820412       -1.2004796171
 H          1.1171416528        1.3079780848        1.5063031997
 H          1.7342498619        2.2598379873        0.1461037559
 H          0.0075931307        2.2595418204        0.5093932861
  17
        -28.17530155
 C          2.0598711753       -1.4829965987       -0.4365042943
 C          1.6371616519       -0.4494863809        0.6024523271
 C          0.9497465173        0.7584739565       -0.0355903231
 H          1.5821464143        1.1590524568       -0.8336224893
 C          0.6202096909        1.8588420685        0.9649721084
 O         -0.2140855645        0.3710649732       -0.8092282284
 N         -1.2864136418       -0.1825525154       -0.2179045658
 O         -2.1561194974       -0.4708873196       -0.9866133953
 O         -1.2904536420       -0.3389816953        0.9646031813
 H          2.7607468934       -1.0476936434       -1.1442154936
 H          1.2017631940       -1.8544527918       -0.9933380055
 H          2.5387680776       -2.3270960162        0.0511653491
 H          2.5161630446       -0.0788077416        1.1285764891
 H          0.9753763728       -0.9061310490        1.3398237046
 H          0.0403913731        1.4718256424        1.7987659637
 H          1.5467259137        2.2738595577        1.3470959636
 H          0.0584242409        2.6508762594        0.4761362283
  17
        -28.17495408
 C          3.0126737972       -0.5709280444        0.1384854302
 C          1.4993479490       -0.7057689702        0.2621689352
 C          0.7699539686        0.3079519225       -0.6227416212
 H          1.1746952461        0.2608283116       -1.6383095736
 C          0.8328830747        1.7392537868       -0.1082955981
 O         -0.5991330170       -0.1017377725       -0.8771592092
 N         -1.4882318077       -0.1923119317        0.1290712445
 O         -1.1384365595        0.0564055714        1.2414653705
 O         -2.5777470058       -0.5299740373       -0.2279493125
 H          3.3242325955       -0.6773729180       -0.8972110424
 H          3.4962690797       -1.3465559269        0.7251376800
 H          3.3486083131        0.3931252307        0.5077705512
 H          1.2026135393       -0.5725372520        1.3034789910
 H          1.2012416231       -1.7082765058       -0.0536938495
 H          0.4937063730        1.8015802030        0.9225312772
 H          1.8577930227        2.0890218548       -0.1623769177
 H          0.2140892053        2.3830962525       -0.7284219732
  17
        -28.17447453
 C          2.8007944478       -1.0600279712       -0.6620167122
 C          2.0244275400       -0.3452512041        0.4377371556
 C          0.7730402844        0.3634909464       -0.0974764099
 H          0.6472077198        0.1737659996       -1.1698541525
 C          0.7694562703        1.8639522578        0.1614112530
 O         -0.3476257840       -0.2530759693        0.5823695216
 N         -1.5615997352       -0.1887318221        0.0118299280
 O         -1.6721073105        0.3798568235       -1.0332933249
 O         -2.4221429438       -0.7337579351        0.6358708318
 H          2.1849788409       -1.8184618597       -1.1392171876
 H          3.6767587178       -1.5459575997       -0.2422308251
 H          3.1292930773       -0.3528409805       -1.4192778656
 H          2.6679239219        0.3830711931        0.9286346793
 H          1.7020364932       -1.0656811462        1.1902716567
 H         -0.1203737303        2.3251709357       -0.2614541349
 H          0.7984333042        2.0551413184        1.2308016204
 H          1.6422892129        2.3061225007       -0.3071165798
  17
        -28.17423332
 C          2.2698354008       -1.0137826103       -1.0028981691
 C          1.7042588149       -0.4358013015        0.2894540595
 C          0.7204227697        0.7181712029        0.0286983349
 H          0.5495310581        0.8221411699       -1.0489968693
 C          1.1734203855        2.0412005319        0.6242894745
 O         -0.5602978850        0.4396517964        0.6416765368
 N         -1.4261735917       -0.3497441592       -0.0172191654
 O         -1.1018548863       -0.7942819602       -1.0768587044
 O         -2.4608140107       -0.5194009069        0.5554192778
 H          1.4693996798       -1.4014544694       -1.6295430924
 H          2.9565292746       -1.8252882188       -0.7792842187
 H          2.8074882373       -0.2499218058       -1.5582554271
 H          2.5172535377       -0.0774712547        0.9199051993
 H          1.1874511331       -1.2220963553        0.8431911326
 H          0.4445961562        2.8187608907        0.4154363953
 H          1.2807517252        1.9422612826        1.7001225085
 H          2.1269978252        2.3192446561        0.1885233727
  17
        -28.17084083
 C          1.9146517039       -1.4106615114        0.5756046042
 C          1.8379670559       -0.3245619591       -0.4940844816
 C          0.9133296316        0.8668992233       -0.2008737820
 H          1.2424925129        1.7085407294       -0.8188592812
 C          0.8605723227        1.3089854867        1.2533636591
 O         -0.4121460792        0.6841403262       -0.7757356626
 N         -1.3368246796       -0.1392762037       -0.2512466198
 O         -2.3701436836       -0.1282819512       -0.8538263063
 O         -1.0786929482       -0.7802307260        0.7193375387
 H          0.9389989445       -1.8342333169        0.7957206546
 H          2.3359271415       -1.0176143130        1.4958259112
 H          2.5608044713       -2.2098415971        0.2217585435
 H          1.5199277089       -0.7622777294       -1.4428148970
 H          2.8398137329        0.0795616539       -0.6428780682
 H          0.2156462815        2.1790112639        1.3504651219
 H          0.4911746486        0.5208348611        1.9022581295
 H          1.8634184765        1.5819166984        1.5651402886
