! pbe def2-sv(p) def2/J RI DEFGRID1 loosescf d4 GCP(DFT/SV(P)) printgap
%output
    printlevel normal
end
* xyz 0 1
C 4.4849791986 -1.644863089 -2.9326291405
C 4.1127027854 -0.4522184638 -2.0758672704
O 3.2198886281 -0.910406879 -1.0356607542
P 2.155452878 0.0423631558 -0.3527809875
S 1.1279750015 1.1166903251 -1.6441006333
O 3.0858868374 0.8612882341 0.6376746539
C 2.6796182945 1.9562931061 1.4775677512
C 2.4353096616 1.4765679346 2.8938347152
S 1.1441654182 -1.4023144858 0.7819869118
C -0.1605492922 -1.7942227783 -0.4391629897
S -1.8262316328 -1.7592636847 0.2555161331
P -2.1197573581 0.3520621972 0.3834567624
S -0.8388313234 1.4022182996 1.4241725635
O -3.6404946912 0.4375621908 0.834086528
C -4.229423367 -0.3087420585 1.9168357649
C -3.4617836058 -0.167046919 3.2138997872
O -2.1808859301 0.9302388493 -1.079183308
C -3.1220627614 0.5384052897 -2.1089420144
C -2.5002737022 -0.4657166874 -3.0601577117
H 5.1910596479 -1.3291556053 -3.6937356156
H 4.9385509641 -2.414802752 -2.3154220424
H 3.5995244489 -2.0528971637 -3.4116595548
H 3.600125862 0.3198065823 -2.6603555652
H 4.9887640681 -0.0140457586 -1.5927500041
H 3.5127268353 2.6605752902 1.4333279808
H 1.7821660484 2.423404412 1.0608659108
H 2.2427067995 2.3343783427 3.5294506569
H 1.5674675761 0.8213349206 2.9237594637
H 3.3045827741 0.9373406224 3.2593020813
H -0.0066245776 -2.8112435423 -0.7895638732
H -0.0890058572 -1.0704600844 -1.2552218791
H -5.2336450851 0.1109510678 1.998891012
H -4.2858754445 -1.3577078851 1.6135003143
H -3.3526177734 0.882348122 3.4780881348
H -3.9929009814 -0.6852587144 4.0056803872
H -2.4672694099 -0.5998164353 3.1112260195
H -4.0239103554 0.1442959236 -1.6372283386
H -3.3511959655 1.4740205441 -2.621620258
H -2.3733829592 -1.4319930822 -2.5781024207
H -3.150179262 -0.5846092834 -3.9212477342
H -1.5313233733 -0.1009210509 -3.3948128387
*
