! pbe def2-sv(p) def2/J RI DEFGRID1 loosescf d4 GCP(DFT/SV(P)) printgap
%output
    printlevel normal
end
* xyz 0 1
C 2.1775276714 -2.550672595 -2.9513130782
C 2.6932643336 -1.3392176666 -2.2030801725
O 2.1770196183 -1.4023219448 -0.8523382086
P 2.2157656517 -0.1425039017 0.1039025232
S 1.3640906231 1.4928100809 -0.585706338
O 3.7812234007 0.0088914819 0.3529652308
C 4.3619982716 1.1941467137 0.9221203259
C 3.9580257579 1.3858441815 2.3695943958
S 1.4596336672 -1.0267325975 1.8556589952
C -0.2690031717 -0.5238757668 1.7110591927
S -1.0742444229 -1.2382121877 0.2342687198
P -2.4666716741 0.328620009 -0.1757157609
S -2.1086759183 2.047642723 0.7100790433
O -3.8885015028 -0.3254142464 0.0573962123
C -4.2607906979 -1.0782386463 1.224691605
C -4.2950211641 -0.2257764937 2.478033108
O -2.6195185947 0.4046729539 -1.7463946884
C -1.712768239 1.1244205383 -2.597980148
C -0.7692343253 0.1595914246 -3.2878710217
H 2.5139705132 -3.4584240612 -2.4593635595
H 1.0911570617 -2.5469733139 -2.970530592
H 2.5545883735 -2.5284313194 -3.9684613817
H 2.3579071717 -0.4031770337 -2.6626432476
H 3.7843322072 -1.3367861803 -2.1459956589
H 5.4361754316 1.0345021499 0.8198317918
H 4.0535645413 2.054131543 0.3186781222
H 4.1610007054 0.4836940707 2.9411748335
H 4.5151743194 2.2158857366 2.7920394064
H 2.8933695203 1.6090956721 2.4323743652
H -0.3441162068 0.5660126713 1.6427003369
H -0.7555913515 -0.8990018278 2.6082197875
H -5.2531464693 -1.459465318 0.9774448461
H -3.5643883571 -1.9151410898 1.3372809428
H -4.6421418077 -0.8256935377 3.3131719433
H -3.3018886549 0.1609376405 2.701789873
H -4.9639765688 0.6197652388 2.3389225867
H -2.3481898581 1.6424153908 -3.3188312443
H -1.1602154223 1.8644063286 -2.0074156976
H -1.3363253448 -0.5893152998 -3.8331114656
H -0.1343102231 0.710370017 -3.974435593
H -0.1449776788 -0.3382378307 -2.5489615654
*
