! pbe def2-sv(p) def2/J RI DEFGRID1 loosescf d4 GCP(DFT/SV(P)) printgap
%output
    printlevel normal
end
* xyz 0 1
C 3.3654099325 -2.1383936934 -2.1706184701
C 3.9964064921 -0.8337533015 -1.7267705652
O 3.5780323831 -0.4457744077 -0.4090961138
P 2.0872436401 0.0062345479 -0.0630119041
S 1.2676645547 1.0942868284 -1.4788826275
O 2.3194672058 0.641546813 1.3639565774
C 2.5873783569 2.0410085294 1.5685405234
C 3.9058465221 2.467236579 0.9580494088
S 1.1001470069 -1.7676978382 0.5088496551
C -0.2444316022 -1.7979728134 -0.7324582488
S -1.9075773614 -1.7225960528 -0.0233844804
P -2.0559992639 0.3634447622 0.3632379911
S -0.8061938197 1.1650132813 1.6402418087
O -3.5892112216 0.5193360263 0.7582798649
C -4.0633787003 0.3775952 2.1085933503
C -3.9008864343 -1.0360450013 2.6280129041
O -1.9921349668 1.0837556219 -1.0353923772
C -2.9482285287 0.8927856273 -2.1124274786
C -2.3802538983 -0.0174817987 -3.1834923047
H 3.5140283454 -2.9054336431 -1.4148203362
H 2.2968838563 -1.998446717 -2.3276236088
H 3.819708258 -2.4567224921 -3.1033895933
H 3.7395919439 -0.0272319857 -2.4214594835
H 5.0804918835 -0.9194403034 -1.641173322
H 1.7532302596 2.6156573709 1.151706657
H 2.5848345482 2.145957664 2.6544777724
H 4.7088871151 1.8325625219 1.3237652599
H 3.8569479496 2.3855014658 -0.1274679609
H 4.106535769 3.4999207896 1.2256219974
H -0.1926657035 -2.7527882253 -1.2485607018
H -0.1008437148 -0.9562345253 -1.4163006669
H -3.5189683226 1.0858586 2.7409996978
H -5.1132417836 0.667166783 2.0447510624
H -4.3885927915 -1.120938239 3.5937814567
H -4.3416986139 -1.7481424453 1.934877746
H -2.8435766155 -1.2696388734 2.7467797011
H -3.8776790624 0.5001958971 -1.6973169708
H -3.1106988489 1.9001134651 -2.4989969966
H -2.3230171753 -1.044069423 -2.8307646615
H -3.0264643073 0.0203354755 -4.0546941319
H -1.3858690817 0.3228782178 -3.4641773789
*
