! pbe def2-sv(p) def2/J RI DEFGRID1 loosescf d4 GCP(DFT/SV(P)) printgap
%output
    printlevel normal
end
* xyz 0 1
C 2.7317684354 -3.1418474605 -1.4843666636
C 3.0453540029 -2.5287394722 -0.1347414745
O 3.3435473407 -1.1153782323 -0.2529576488
P 2.279466782 0.0442389035 -0.0897892097
S 3.1375652622 1.7933562985 0.0318091767
O 1.359673041 -0.3893231798 1.1450293118
C 1.3887920488 0.2911669187 2.4123718776
C 2.5941736917 -0.1305429477 3.22765395
S 0.9276246266 -0.2266578273 -1.7048938093
C 0.2268513279 1.4409132889 -1.6700672921
S -0.6280102463 1.8252016752 -0.1235221798
P -2.1454077342 0.3362317324 -0.3137809053
S -2.7917761938 -0.030139365 -2.11700379
O -3.2803590572 0.8886314169 0.6350274174
C -3.0497139621 1.2031071481 2.0325456742
C -4.3639472749 1.6789421928 2.6146069552
O -1.5272401487 -0.9007029911 0.4860219733
C -1.424113698 -2.2305682455 -0.0537411434
C -2.6924859962 -3.0137130803 0.2180310401
H 1.8193263899 -2.717311133 -1.8985910749
H 3.5469702197 -2.9530463369 -2.1772699685
H 2.6033850673 -4.2132061367 -1.3658201203
H 3.9568783476 -2.9537102474 0.2890239336
H 2.2157179825 -2.6571152127 0.5638423126
H 1.3997042525 1.3707359694 2.2328661131
H 0.4501644824 0.0069265659 2.8907208489
H 2.5883081484 -1.2050163938 3.390628853
H 3.5063995948 0.1428045137 2.6980197765
H 2.576894717 0.3793192969 4.185556446
H -0.4758129469 1.4968242956 -2.501171062
H 1.0268340382 2.1740376075 -1.7708537201
H -2.6892324984 0.3014700503 2.5324833763
H -2.2814060455 1.9796269361 2.0852416689
H -5.1155254115 0.899849606 2.5256047182
H -4.2214278053 1.9258862129 3.661656192
H -4.7097263798 2.5593845121 2.0808478648
H -1.2314049709 -2.1687810743 -1.1289719721
H -0.5601515093 -2.665647154 0.4513392646
H -3.5318766821 -2.5354637256 -0.2845390839
H -2.5798603002 -4.0229102648 -0.1647280737
H -2.8949277582 -3.0522629179 1.2848365043
*
