! pbe def2-sv(p) def2/J RI DEFGRID1 loosescf d4 GCP(DFT/SV(P)) printgap
%output
    printlevel normal
end
* xyz 0 1
C 5.4494005348 -0.4640461551 -0.87500617
C 4.7688070123 -0.1730764194 0.4480299065
O 3.4503054802 -0.751757893 0.5156160973
P 2.1715430943 -0.1279609926 -0.193420553
S 2.0452640027 -0.2589356003 -2.1473063073
O 2.153773028 1.3506536504 0.3967964426
C 1.8929937199 2.5455874329 -0.3562365384
C 3.1808672003 3.3193295798 -0.5556380362
S 0.8031857916 -1.256368085 0.9398675522
C -0.2562311499 -1.9445851516 -0.3863366549
S -1.9997611684 -1.8976999015 0.0622065993
P -2.1759544091 0.2140510842 0.2737181036
S -1.1407305178 1.2948767125 -0.9900565402
O -1.7864786355 0.5634069093 1.7594304958
C -2.0355184105 -0.246630321 2.9349043425
C -3.4953769296 -0.6077019923 3.0990584961
O -3.7392435529 0.4883590015 0.2485542701
C -4.4774761084 0.7066587822 -0.9663163319
C -4.5183914693 -0.5250931901 -1.8475913251
H 5.4855108216 -1.5361189382 -1.0493549218
H 4.9030988374 -0.0022357868 -1.6954522954
H 6.4599792955 -0.0684334944 -0.853412555
H 4.6909896037 0.9029589174 0.6251696973
H 5.2986657767 -0.6437880408 1.278228012
H 1.4447988391 2.2765137453 -1.3181654434
H 1.1638101992 3.1100227678 0.2278615859
H 3.871652754 2.742471582 -1.1675806104
H 2.9560584012 4.2521831245 -1.062326281
H 3.6430254872 3.5339617056 0.404293093
H -0.0042804654 -2.9919823173 -0.5313592202
H -0.0837708327 -1.3671403746 -1.2992844678
H -1.4094884289 -1.1413583331 2.8661968144
H -1.6798613523 0.3862409301 3.7491942563
H -3.8163606965 -1.2582695999 2.2880463982
H -3.6256071411 -1.1281145464 4.0428174846
H -4.1079279615 0.2899891067 3.0941412963
H -5.4726596841 0.9845283733 -0.6163729031
H -4.0230566514 1.5468213063 -1.5009714871
H -5.1985615097 -0.3499761282 -2.6750077882
H -3.5267251465 -0.7317961249 -2.247179331
H -4.8546445035 -1.3880913187 -1.2788204873
*
