! pbe def2-sv(p) def2/J RI DEFGRID1 loosescf d4 GCP(DFT/SV(P)) printgap
%output
    printlevel normal
end
* xyz 0 1
C 3.3122818549 0.6245868438 -2.6537580445
C 1.9294541557 0.9141316918 -2.1118957985
O 1.4345053953 -0.1774578366 -1.3168569156
P 2.0517208098 -0.5486792713 0.0943715522
S 2.6844479811 0.97030572 1.1698370489
O 3.1385090172 -1.6200506761 -0.3516698602
C 3.737649041 -2.6269065828 0.4848412287
C 4.3137672692 -2.0702076903 1.7700501357
S 0.5518955729 -1.7625986023 0.9403143388
C -0.2506856452 -0.5847207896 2.0789692775
S -2.0164433937 -0.3658300597 1.73698643
P -1.8279703378 0.7678101325 -0.0210201909
S -0.5155745115 2.218625415 -0.0697692673
O -3.3437515074 1.2515977466 -0.0927403765
C -3.7401485965 2.2579160653 -1.0477562908
C -5.2108224639 2.5444154933 -0.8274738838
O -1.5628175672 -0.2203051432 -1.2405257475
C -2.1320371131 -1.5422165393 -1.4092785246
C -3.6461376405 -1.5415889985 -1.4332928119
H 3.6185956219 1.4338224976 -3.3091327181
H 4.0187469214 0.5477151365 -1.82785634
H 3.3108576369 -0.3125822714 -3.2039151134
H 1.1871458248 1.0175102184 -2.9048677246
H 1.9287317308 1.8219703271 -1.4986464526
H 2.9790026214 -3.3851091633 0.697429477
H 4.5179239171 -3.0518434103 -0.1492949157
H 4.8235176753 -2.8631179553 2.3077714886
H 5.0177390443 -1.2692395898 1.5569573968
H 3.5196044913 -1.6683942237 2.397531328
H 0.2717755885 0.3745122528 2.013241555
H -0.1902463217 -0.9961523897 3.0831984943
H -3.1246892533 3.1492366879 -0.8868175855
H -3.5487629151 1.8808527403 -2.0573821116
H -5.3699952226 2.8941114497 0.1882676464
H -5.5334969078 3.3091207593 -1.5264180133
H -5.7946498933 1.6419586946 -0.9832303209
H -1.7114300775 -1.8698437495 -2.3615200633
H -1.7573585116 -2.1832460987 -0.606334045
H -4.0159117063 -0.8675434143 -2.2022455886
H -3.9903272662 -2.548451401 -1.649042274
H -4.0417775869 -1.2329481713 -0.4676492507
*
