  28
        -42.92074152
 C          4.4610665498        1.8093955965        1.1873222872
 C          3.6024593931        1.2688369376        0.0507006790
 C          3.5307457669       -0.2567905373        0.0774054075
 C          2.6549665812       -0.8116058171       -1.0429142849
 O          1.3013744074       -0.3584164332       -0.9277943612
 C          0.4819974086       -1.0385138700       -0.1236406221
 O          0.8304742295       -2.0346666897        0.4896706495
 C         -0.8725132998       -0.4692347265       -0.0684451898
 C         -1.8276171355       -1.0861630620        0.7398478833
 C         -3.1080389360       -0.5844801726        0.8209223310
 C         -3.4586032736        0.5510277068        0.0901482399
 C         -2.5039584254        1.1711485881       -0.7205668590
 C         -1.2262283095        0.6673339071       -0.7992556953
 O         -4.6936265223        1.0854230124        0.1304448584
 H          4.0509339513        1.5113750514        2.1496507396
 H          5.4752101116        1.4242232764        1.1134246796
 H          4.4999638943        2.8948287683        1.1511239437
 H          2.5918852293        1.6755997448        0.1287402641
 H          4.0184964143        1.5902054431       -0.9060994170
 H          4.5298632770       -0.6793366172       -0.0344984241
 H          3.1264211603       -0.5934511625        1.0351609969
 H          2.9853012845       -0.4484835069       -2.0170479404
 H          2.6614540012       -1.9060867588       -1.0214597698
 H         -1.5389814183       -1.9637778910        1.2982720735
 H         -3.8380448883       -1.0711241715        1.4499522485
 H         -2.7949925542        2.0470702079       -1.2774679916
 H         -0.4898601322        1.1439467207       -1.4257090778
 H         -5.2791224786        0.5828609442        0.7193470589
