! pbe def2-sv(p) def2/J RI DEFGRID1 loosescf d4 GCP(DFT/SV(P)) printgap
%output
    printlevel normal
end
* xyz 0 1
C 3.8394992271 -0.6508886557 -2.497485389
C 2.6225089398 0.2438542116 -2.3971337861
O 1.854123836 -0.0326569938 -1.2118690865
P 2.3726497254 0.3245155002 0.2423533861
S 3.5192270697 1.9030021879 0.4058452785
O 3.0518517996 -1.055658168 0.675627528
C 3.9679405343 -1.1346628161 1.78032692
C 3.2709322733 -0.9430100916 3.1125553998
S 0.5323548775 0.38409036 1.2553647503
C -0.1160062864 -1.2556164982 0.7360219078
S -1.9038323857 -1.3087478321 0.923598789
P -2.3759865915 0.1093715153 -0.5980298364
S -1.253922291 0.0774880383 -2.1981090566
O -2.3798324484 1.5264207018 0.0944569398
C -3.2121759658 1.8547120665 1.2397080063
C -2.3642253227 2.0010898623 2.4868382195
O -3.9308106324 -0.1297100571 -0.8428098216
C -4.4372264392 -1.0904638957 -1.7872530564
C -4.1095113314 -2.5168271403 -1.3962884609
H 4.5335502709 -0.4199263385 -1.6902103116
H 3.5459734843 -1.6947522476 -2.4253018125
H 4.3328736131 -0.4779457111 -3.448646743
H 1.9123606894 0.070730098 -3.2081400284
H 2.9152322992 1.298684879 -2.3819298015
H 4.4052517661 -2.1299433537 1.6905132597
H 4.7412883441 -0.3722960353 1.6422790868
H 3.9910432 -1.0697127304 3.9145504728
H 2.8524374776 0.0616289528 3.1702283417
H 2.4687531138 -1.6661369669 3.2340690632
H 0.2943227749 -2.0301498177 1.3778898961
H 0.1428208999 -1.4102462473 -0.310771284
H -3.6883502685 2.7990352143 0.9712327315
H -3.9727186204 1.0809972557 1.3611426853
H -2.990857634 2.3550538651 3.2991223458
H -1.9191306836 1.0493231828 2.7666810633
H -1.56298021 2.7142295502 2.3125001633
H -5.5129386446 -0.9086362301 -1.7857007467
H -4.0217739948 -0.8555883787 -2.7720469405
H -4.4149779516 -2.7093441416 -0.3710079464
H -4.6306391911 -3.1967471519 -2.0626152876
H -3.0383849866 -2.6907456326 -1.4836044243
*
