! pbe def2-sv(p) def2/J RI DEFGRID1 loosescf d4 GCP(DFT/SV(P)) printgap
%output
    printlevel normal
end
* xyz 0 1
C 4.6454213317 -1.3281802302 -1.479971563
C 4.2804497631 0.1299291341 -1.280384595
O 3.4362010718 0.2976057761 -0.1231887393
P 1.8743780585 0.5784628555 -0.2479601202
S 1.426697623 2.0712641991 -1.4262181073
O 1.4802959012 0.8257047679 1.2537610712
C 1.974200045 0.0218472544 2.3551612236
C 3.1558092239 0.6955181513 3.0191883288
S 1.1159168724 -1.3206735645 -0.8695395605
C -0.1435300208 -0.8003554166 -2.0648667273
S -1.8543031819 -1.1604380264 -1.5707860102
P -1.8731242692 -0.3272197384 0.3923255517
S -1.0863916975 -1.364174946 1.8505368081
O -3.4127026651 0.0023564257 0.6081228916
C -4.3310190003 -0.9609162822 1.1544382937
C -4.5622439631 -2.1236485723 0.2119269581
O -1.2261385474 1.1050490391 0.2139906436
C -1.9226844234 2.1826197885 -0.4697879686
C -2.5615287349 3.1140074623 0.537450588
H 3.7582600144 -1.9231258337 -1.6823014134
H 5.3272037184 -1.407659057 -2.3204957222
H 5.1301399338 -1.7153185754 -0.588239544
H 3.7706355268 0.5419582241 -2.1569440313
H 5.1670097756 0.7313865243 -1.0695310394
H 1.1241590176 -0.0619529543 3.0352352038
H 2.2314785739 -0.973203254 1.9839707357
H 3.9906767516 0.7647461831 2.3270123511
H 2.8794321156 1.6962798985 3.339846999
H 3.4518681128 0.1099819385 3.8839020614
H 0.0141433517 -1.3712081846 -2.9769378018
H -0.0205407187 0.2715029043 -2.2469304833
H -3.9333127216 -1.3130443925 2.1115525718
H -5.243617013 -0.3864185749 1.3187955679
H -3.6463253878 -2.7042016105 0.1066006549
H -5.3394996269 -2.7641476603 0.6159856864
H -4.8623712533 -1.7641714505 -0.7691105505
H -1.1470186569 2.6931253027 -1.0451683134
H -2.6660370622 1.7530388044 -1.1452720052
H -1.8066797771 3.4858169788 1.2254669451
H -3.0084823325 3.9504456753 0.0094027218
H -3.3287543505 2.5917449893 1.103352478
*
