! pbe def2-sv(p) def2/J RI DEFGRID1 loosescf d4 GCP(DFT/SV(P)) printgap
%output
    printlevel normal
end
* xyz 0 1
C 3.3705842257 -1.3943458169 -2.9099072713
C 4.144875055 -1.038820094 -1.6586151288
O 3.5742896508 0.0751719615 -0.9448480906
P 2.0580356848 0.1871508795 -0.4806916867
S 0.7708617111 0.7718189786 -1.8361755995
O 2.1468071117 1.286825197 0.6435904588
C 3.1089309691 1.3221971425 1.7270424604
C 2.5374297432 0.7083507851 2.9904118526
S 1.7464328577 -1.7087500603 0.4302577709
C 0.1014647234 -1.4668444358 1.1490923579
S -1.2508223912 -1.4502659336 -0.0657021497
P -2.0361330763 0.5052963132 0.2566123924
S -1.0354710002 1.6144631024 1.5214035762
O -3.5583081231 0.2545961355 0.6736411525
C -3.9827262801 0.039614303 2.029800762
C -3.4562917098 -1.2578350846 2.6090853759
O -2.2290379646 1.2060696724 -1.138401804
C -3.2271258365 0.8700612939 -2.1310659133
C -3.0502518038 -0.530662625 -2.6762625781
H 2.3692368359 -1.7339399618 -2.6479949948
H 3.2774206099 -0.5260339058 -3.5581529689
H 3.8869684523 -2.187955987 -3.4400754473
H 5.1542682416 -0.6984119547 -1.8966784361
H 4.1896402583 -1.8919861381 -0.9761165097
H 4.0219898993 0.8168135362 1.407296239
H 3.3037553939 2.3872810269 1.8627363653
H 3.1999978119 0.9322247656 3.8203422639
H 1.557361734 1.1358649124 3.193373244
H 2.4463345476 -0.3706391479 2.8930374386
H 0.0780417158 -0.52204183 1.7004521047
H -0.0473823638 -2.3212379682 1.8044333001
H -3.6519269109 0.8915106692 2.6321737796
H -5.0715486727 0.035753239 1.9594047735
H -3.9324902692 -1.4369184768 3.567701111
H -3.6692044718 -2.0869269782 1.9392391855
H -2.3804187959 -1.1873349322 2.7588499753
H -4.2135619287 0.9993642786 -1.6804641579
H -3.0639536524 1.6228759798 -2.9039455898
H -3.2585611162 -1.2693097844 -1.90348467
H -3.7365546313 -0.6798555711 -3.503840524
H -2.0290517902 -0.6650361019 -3.0269563413
*
