! pbe def2-sv(p) def2/J RI DEFGRID1 loosescf d4 GCP(DFT/SV(P)) printgap
%output
    printlevel normal
end
* xyz 0 1
C 4.3795598106 1.0779151388 -2.1013502934
C 4.6206894206 0.2848590806 -0.8344506486
O 3.6031084935 0.4978502547 0.1623107392
P 2.0387724231 0.3147358896 -0.0572598642
S 1.0784946245 1.7529429349 -0.9720716568
O 1.540617438 0.1792385023 1.4311974448
C 2.1049106909 -0.7770638656 2.3679528749
C 1.0608678686 -1.0715862596 3.4245800163
S 1.9314205612 -1.6152421435 -0.9492087035
C 0.1646521065 -1.6402198523 -1.3134062231
S -0.8618237608 -1.7639043769 0.187721459
P -1.9810119316 0.013023862 0.037180142
S -2.2710547011 0.6567190873 -1.7986190963
O -1.2125885754 0.8995912384 1.0984635921
C -1.7420046932 2.070621717 1.751866634
C -2.1908698879 3.1324231347 0.7701712166
O -3.3285201297 -0.2891346569 0.8290151964
C -4.4999883031 -0.8201958061 0.1869387584
C -4.3221192841 -2.2712997317 -0.2099366031
H 5.2151598669 0.9377603945 -2.7793659765
H 3.466095053 0.7401807401 -2.5890690253
H 4.2726621245 2.135900351 -1.8732686726
H 5.5373912699 0.6017289363 -0.3339910953
H 4.6645500245 -0.7859746137 -1.0508777198
H 2.383715147 -1.6829327854 1.8211458474
H 2.9993809888 -0.3226055309 2.797665552
H 0.7710741804 -0.1543970299 3.9292859619
H 0.1786397968 -1.5130804273 2.9675302498
H 1.4752838826 -1.7665118844 4.1477362587
H -0.003161614 -2.5298551812 -1.9149440551
H -0.120750295 -0.7350593692 -1.8579061796
H -2.5658276737 1.7557954673 2.3969760154
H -0.9025074158 2.420161515 2.3560606429
H -3.041471968 2.7759726921 0.1901076467
H -2.4782423044 4.0290072834 1.3101348715
H -1.381399537 3.3698669318 0.0813705396
H -5.2855925583 -0.6987622586 0.9339585513
H -4.720337326 -0.2061197373 -0.6922772965
H -3.5843944747 -2.3499462988 -1.0069223727
H -3.9847383734 -2.8575889322 0.6408526665
H -5.2688559448 -2.6630088803 -0.5675278145
*
