! pbe def2-sv(p) def2/J RI DEFGRID1 loosescf d4 GCP(DFT/SV(P)) printgap
%output
    printlevel normal
end
* xyz 0 1
C 4.0719335912 -1.5824688582 -2.3445149513
C 4.1843242272 -0.1641833463 -1.8249593297
O 3.5699852711 -0.0089591195 -0.5334231317
P 1.9993684305 -0.128178884 -0.3190864265
S 0.9515101145 0.6880693811 -1.7687922545
O 1.8130184433 0.4633615002 1.136838935
C 2.0501009611 1.8526720981 1.4520859581
C 3.4556794468 2.0532713233 1.977748003
S 1.6424002234 -2.1557472114 0.0908098881
C -0.1223384277 -2.2191650153 -0.3177292353
S -1.204227078 -1.6570645293 1.0378647776
P -2.0660044757 0.1399015825 0.3030160034
S -1.2729466603 1.8506077597 0.8614501267
O -3.5922300471 0.0292236898 0.7465181921
C -4.051884662 0.5306868031 2.0098948064
C -3.5533034342 -0.3215301401 3.1585568585
O -2.1618245739 -0.2329781575 -1.2315000935
C -3.0699849396 0.3908797912 -2.1666367027
C -2.6908761086 1.8268038467 -2.4616866347
H 4.4337592926 -2.2871775044 -1.6002349187
H 3.0322153481 -1.814237972 -2.571012659
H 4.6600064171 -1.6790061818 -3.2514982028
H 3.711247452 0.5387744724 -2.5182749855
H 5.2232349097 0.1221894228 -1.656039906
H 1.8583972464 2.4576886738 0.5596805265
H 1.2981344669 2.0972030662 2.2053647583
H 3.5750693808 3.0905199923 2.2745696625
H 3.6211645526 1.4101117876 2.8374341109
H 4.1867034712 1.8109874399 1.2107378652
H -0.3559750956 -3.2658787917 -0.491208931
H -0.311597197 -1.6121694781 -1.2024293264
H -3.7071244319 1.5647925669 2.1186509977
H -5.1391077521 0.5061256874 1.9273149545
H -2.4648941481 -0.269652063 3.2068748148
H -3.9665654692 0.0477199522 4.0914473304
H -3.8437793348 -1.3588756122 3.015670832
H -2.9781296754 -0.2335470738 -3.0570084609
H -4.0818686642 0.3217460489 -1.7616658385
H -2.8162242781 2.4444034538 -1.5738995878
H -1.6484640686 1.8798887794 -2.7711140659
H -3.3226471557 2.2111379899 -3.2559313688
*
