! pbe def2-sv(p) def2/J RI DEFGRID1 loosescf d4 GCP(DFT/SV(P)) printgap
%output
    printlevel normal
end
* xyz 0 1
C 2.3873360432 -0.0004451626 0.5016947449
N 1.3680535758 0.0001732263 -0.5426006877
C 0.5288783432 1.1900016684 -0.5613119511
C -0.5316021246 1.1910160434 0.5530574964
N -1.3704284906 2.96899e-05 0.5473264218
C -0.5313188799 -1.1907539766 0.5531637782
C 0.5290285839 -1.1897824478 -0.5613271953
C -2.3802407733 -0.0001819754 -0.4919643759
H 2.3217703874 0.8858883377 1.1331217435
H 3.3722210337 -0.0100112168 0.0275396439
H 2.3103442636 -0.8773797368 1.145039267
H 1.1662333264 2.0713789728 -0.4778574886
H 0.0350944239 1.2225676198 -1.5375281509
H -0.0342961011 1.2253929915 1.5283572047
H -1.1712881124 2.0706110052 0.4639191625
H -0.034059878 -1.2247577179 1.5285029906
H -1.170760188 -2.0705552685 0.4643790492
H 1.1665960963 -2.0710092039 -0.4778554492
H 0.035171774 -1.2224377212 -1.5374959837
H -3.0029345726 -0.8847831165 -0.3655833736
H -1.9819057419 0.000429115 -1.5155840836
H -3.0039839968 0.8835841103 -0.3649336415
*
