! pbe def2-sv(p) def2/J RI DEFGRID1 loosescf d4 GCP(DFT/SV(P)) printgap
%output
    printlevel normal
end
* xyz 0 1
C 0.6422531446 -3.7805979507 -1.6605950955
C 1.7734128873 -3.5701784701 -0.6665315912
O 1.7514905439 -2.2268828848 -0.1488319619
C 2.3670458946 -1.2796355024 -0.8278793482
O 3.0149394759 -1.4533218503 -1.8340590076
C 2.1316036476 0.0775101608 -0.1885201094
C 1.028464699 0.8078730597 -0.9636193937
H 1.3981992586 1.1057400471 -1.9480195943
C 0.5511054195 2.0257528731 -0.1919477483
O -0.5932323967 2.1266192806 0.2045842822
O 1.5022983365 2.8917771958 0.00199913
C 1.1999034672 4.0867754035 0.7588925975
C 0.5813749599 5.1512597381 -0.1312849559
S -0.4293993384 -0.231141036 -1.2997696593
P -1.3221295479 -0.2942231222 0.6140135508
S -0.4104184798 -0.0285678525 2.3263528266
O -2.7227221925 0.4722273566 0.6002372937
C -3.5491371674 0.5179965876 -0.5742383511
O -1.7453083291 -1.8472932235 0.4056619273
C -2.4120433024 -2.5479202539 1.4574642398
H 0.7969673913 -3.1600382145 -2.5402142556
H 0.6133079052 -4.8231345704 -1.9587437505
H -0.3062625902 -3.5057594617 -1.2058293475
H 2.7449496495 -3.7446523213 -1.1376652156
H 1.6553808168 -4.2028858258 0.2133257452
H 3.0439480592 0.671820235 -0.2361101644
H 1.8310776539 -0.0734509414 0.850005852
H 0.5258069351 3.8167797575 1.5764568443
H 2.1666103754 4.402805254 1.1498353253
H -0.3826703354 4.8150353731 -0.5059777306
H 0.4357682385 6.0573828611 0.4472625624
H 1.236271287 5.363937801 -0.9716091323
H -3.1929452534 1.3106828362 -1.2311047467
H -4.5514480924 0.7402741432 -0.2162051472
H -3.5263118895 -0.4383272865 -1.098601856
H -3.3514335753 -2.05505372 1.7129664086
H -1.7733289346 -2.5866039521 2.3414107397
H -2.5964472657 -3.5486821036 1.0754107419
*
