! pbe def2-sv(p) def2/J RI DEFGRID1 loosescf d4 GCP(DFT/SV(P)) printgap
%output
    printlevel normal
end
* xyz 0 1
C 4.3339712321 -2.0253278883 -0.1176516993
C 4.8254880901 -0.6053043948 -0.3080138441
O 3.8396360661 0.3723302493 0.074459899
P 2.4581835747 0.5432366907 -0.6962895225
S 2.5203018897 0.3818966373 -2.6423065147
O 2.0063778133 1.981342178 -0.2334700463
C 2.0232170941 2.3810124187 1.1609851804
C 1.0434348448 3.5217591375 1.3347704292
S 1.1372275395 -0.796618224 0.2978378082
C -0.0744903265 -0.8941166056 -1.0670874849
S -1.5007155162 -1.88317687 -0.5950086379
P -2.5626500845 -0.3945492636 0.5154200132
S -1.9831600961 1.4585513693 0.1986547568
O -2.5987792454 -0.9290339515 2.0024103423
C -1.4379180926 -1.2217916519 2.80115792
C -0.8413126529 0.0351939785 3.4037069
O -4.0924309306 -0.6649766104 0.2295803494
C -4.7968830732 -0.0189973444 -0.8438467746
C -4.3735305563 -0.5460785152 -2.2009161891
H 5.1535140586 -2.7137606622 -0.2971101853
H 3.9583239014 -2.1653206437 0.8928526894
H 3.5343319717 -2.2406855458 -0.824883776
H 5.0965272784 -0.4286163809 -1.3532274867
H 5.6742294914 -0.3815138755 0.3397269597
H 1.7486890151 1.5170267163 1.7742144567
H 3.0433074164 2.683720227 1.4040313957
H 1.3252558978 4.3553179421 0.6982929161
H 0.0400407839 3.2033596563 1.0599393649
H 1.046916929 3.8401824943 2.3720779714
H 0.3916542244 -1.3748300303 -1.9247164076
H -0.3984458306 0.1203218688 -1.3122985563
H -1.8161180809 -1.8922643918 3.5749291395
H -0.6980300592 -1.7490945348 2.1889984012
H -0.4914608007 0.6996464956 2.6167792322
H -1.587991184 0.5606067302 3.9927387789
H -0.0034467506 -0.2352351194 4.0378035635
H -5.8453410205 -0.2387114974 -0.6381186248
H -4.6262710616 1.0610012029 -0.7780019374
H -4.4346100375 -1.6312198635 -2.2185971426
H -5.0250159589 -0.1351507376 -2.9655675968
H -3.3481175285 -0.248524041 -2.4171341041
*
