! pbe def2-sv(p) def2/J RI DEFGRID1 loosescf d4 GCP(DFT/SV(P)) printgap
%output
    printlevel normal
end
* xyz 0 1
C 5.7437315604 -0.4425408722 0.328281199
C 4.3942613491 -0.8270680613 -0.2438090275
O 3.3981734148 0.0239981774 0.3560860796
P 1.9489250728 0.1830118647 -0.281066109
S 1.957817641 0.5411281853 -2.2126786477
O 1.3222796648 1.2668022542 0.6840296641
C 1.3967430822 2.6785061178 0.4060565961
C 2.8186181137 3.1919578064 0.4698467383
S 1.020673936 -1.5948997921 0.3412603147
C -0.1920904718 -1.8489072632 -1.0028817264
S -1.8848208939 -1.9459056302 -0.3993933445
P -2.0826094171 0.0892437111 0.1927342267
S -1.4206624028 1.3652384642 -1.1423571406
O -1.3248763834 0.3354281428 1.5525790735
C -1.738334963 -0.1083900936 2.8696812396
C -1.7547756097 -1.6166143119 3.0075817923
O -3.5995296635 0.1966146174 0.6434177082
C -4.72285549 -0.3107751479 -0.1023602946
C -4.8053842784 0.2649640085 -1.5000306864
H 5.9783864625 0.5878349232 0.0766646783
H 5.7296226472 -0.5469021506 1.4091839071
H 6.5044480807 -1.0948177697 -0.08758973
H 4.1425039042 -1.8649870646 -0.0088781491
H 4.3612139301 -0.6881115489 -1.3299061701
H 0.9551749902 2.8606779338 -0.5798534556
H 0.7615301733 3.1259059077 1.1721453087
H 3.4053564564 2.7491437123 -0.334353451
H 2.8153534467 4.2710264211 0.3517825011
H 3.2695212804 2.9286930249 1.4230790322
H 0.0197280405 -2.8067573518 -1.4707095679
H -0.0935788737 -1.0281818824 -1.7193828312
H -0.9897971822 0.34273466 3.5232219462
H -2.721340175 0.3182827378 3.0766908347
H -0.8002867313 -2.0362791089 2.6966622345
H -1.9315455432 -1.8693652133 4.0485078852
H -2.545593161 -2.0507057671 2.4000076764
H -4.644653658 -1.4006647349 -0.1379275521
H -5.5830880977 -0.0172504649 0.5018203734
H -3.9410544713 -0.0444411137 -2.0859761934
H -5.7078161404 -0.0926802288 -1.9850089922
H -4.8212836343 1.3517376143 -1.4636864845
*
