! pbe def2-sv(p) def2/J RI DEFGRID1 loosescf d4 GCP(DFT/SV(P)) printgap
%output
    printlevel normal
end
* xyz 0 1
C 3.7037966771 -0.3740333944 -2.5256804971
C 2.4833648004 0.4942407663 -2.3075882424
O 1.7652527499 0.121461539 -1.116975369
P 2.3533571526 0.3278809593 0.3392276282
S 3.4912789794 1.8970369389 0.613801288
O 3.0645528692 -1.0803555905 0.5952089595
C 4.0367298677 -1.2570044442 1.6390499282
C 3.4099119026 -1.1918157165 3.0175151521
S 0.5626903825 0.2516421955 1.4332822732
C -0.1113874571 -1.3261459087 0.7711671038
S -1.9008316239 -1.3404408404 0.8990096541
P -2.2803122939 0.0801746362 -0.6503694069
S -1.2207056148 -0.2054113394 -2.2731690152
O -2.0052842083 1.541108851 -0.1236466831
C -2.816526576 2.2987605067 0.8074022061
C -2.8927325471 1.6626265078 2.1798913899
O -3.8627554143 0.0710245454 -0.7710164893
C -4.6790328776 -1.1128726187 -0.8562306815
C -4.2847876534 -2.0137456653 -2.0073582583
H 4.4305611799 -0.1949119548 -1.7340634417
H 3.4234935472 -1.4240952477 -2.5202482545
H 4.15299142 -0.1244727255 -3.4817096092
H 1.7416726679 0.37004 -3.0994347455
H 2.7650991998 1.548762116 -2.2243073567
H 4.4683146567 -2.2377986909 1.435119659
H 4.8020072752 -0.4816105893 1.5322121791
H 2.6134650585 -1.9252764367 3.1124633208
H 4.1701136633 -1.3901838014 3.7661877315
H 2.9969575154 -0.1978784541 3.1895923531
H 0.257221895 -2.1541285185 1.3700973177
H 0.1763033146 -1.4152189556 -0.2764126735
H -2.3080084562 3.2636954914 0.8440246272
H -3.8101701797 2.4172475664 0.371230274
H -3.4620482889 0.7364808967 2.1445966687
H -1.8926805326 1.4497790093 2.5530651843
H -3.3852456805 2.3531473829 2.8575123012
H -4.6053348568 -1.6469421547 0.0949049115
H -5.688267002 -0.7179124247 -0.9854666798
H -4.2931167077 -1.4600082251 -2.9433179438
H -3.2812292974 -2.4061506654 -1.8503793989
H -4.9830866158 -2.841764257 -2.0727342685
*
