! pbe def2-sv(p) def2/J RI DEFGRID1 loosescf d4 GCP(DFT/SV(P)) printgap
%output
    printlevel normal
end
* xyz 0 1
C 5.3082372067 -0.4276169004 -2.3303021773
C 3.8722625277 -0.8075348435 -2.0297771561
O 3.5873372999 -0.4298453438 -0.667981257
P 2.1088581931 -0.185771483 -0.1458370755
S 1.0193291679 0.9118605822 -1.3591984346
O 2.343131141 0.3652547616 1.3150223067
C 2.4900590866 1.7691996412 1.6097233515
C 3.714457945 2.3600810094 0.9458220925
S 1.491435552 -2.1524061087 0.291547854
C -0.1755067884 -1.8584298062 0.9412520083
S -1.3952333601 -1.4729391751 -0.355534608
P -2.2348288602 0.2752909646 0.5308272485
S -1.053987673 1.3509938684 1.6579456024
O -3.4650841822 -0.2192625619 1.3796524153
C -4.5306868863 -1.0466158338 0.8413347862
C -4.4453419099 -2.444126308 1.4212606997
O -2.9565260674 1.0021418994 -0.6786866829
C -2.2789567561 1.7676928853 -1.6934013993
C -3.323911035 2.5917766149 -2.4162681004
H 5.9748278533 -0.9207572209 -1.6289298174
H 5.5537157143 -0.7384550817 -3.3404015422
H 5.4390644469 0.6474474759 -2.2444660807
H 3.7171438022 -1.8856550969 -2.1208549951
H 3.17118838 -0.2865390463 -2.6909668066
H 1.5786130557 2.2863800275 1.2932711715
H 2.5581545072 1.796361568 2.6979796121
H 3.5902140462 2.34436922 -0.136540692
H 3.8382208357 3.3879178852 1.2720543526
H 4.597846918 1.7840514288 1.2088226373
H -0.147504054 -1.0275319623 1.6506417667
H -0.4642684271 -2.787312693 1.4256092154
H -5.45117783 -0.5448963005 1.1428076945
H -4.458944736 -1.0606703512 -0.247871158
H -5.3172137998 -3.0100351075 1.1089930032
H -3.5501228888 -2.9494315255 1.0675611456
H -4.4195983587 -2.3946407478 2.5062478826
H -1.5238062002 2.3995184438 -1.2158789692
H -1.7695741198 1.0762211953 -2.3696874499
H -3.8180366407 3.2617248177 -1.7182095516
H -2.83798929 3.1743514883 -3.1917187111
H -4.0657225199 1.938747243 -2.8663465701
*
