  20
        -41.70409266
 C         -2.5340553766       -0.2700220199       -1.1088094194
 O         -1.1240197038       -0.5510357544       -0.9965983273
 C         -0.4679285788        0.1346901892        0.0019640932
 C          1.0415592449       -0.1979280480       -0.2647725903
 F          1.2413596728       -1.4740637666       -0.6130940462
 F          1.8161440586        0.0259246902        0.8084987313
 F          1.5325446194        0.5558644756       -1.2550589445
 O         -0.6903430936        1.4854084902       -0.1467722045
 C         -0.1437237859        2.3664507688        0.8466720991
 O         -0.8376945246       -0.2472620819        1.2830440716
 C         -0.7195631570       -1.6394479313        1.6053848027
 H         -2.6781312759        0.7407478928       -1.4871498792
 H         -3.0158560023       -0.3823501175       -0.1374900608
 H         -2.8987038795       -1.0087039530       -1.8149971218
 H          0.9429098271        2.4188910202        0.7615049372
 H         -0.4314452689        2.0384322181        1.8442357214
 H         -0.5861307935        3.3298869663        0.6131311548
 H         -1.3494183371       -1.7717904793        2.4800005280
 H          0.3158023873       -1.8889745341        1.8441865594
 H         -1.0705793922       -2.2565885605        0.7779056698
