  28
        -29.74569635
 C          5.0937918178        0.3648384821        0.0044396899
 C          3.8294026770       -0.4862204854        0.0019581685
 C          2.5658509156        0.3713135271       -0.0013378077
 C          1.2956325738       -0.4760219506       -0.0026426926
 C          0.0322322442        0.3814768898       -0.0044659328
 C         -1.2369965561       -0.4679156312       -0.0023691305
 C         -2.5005793763        0.3877798477       -0.0042771401
 C         -3.7745157805       -0.4683626179        0.0021538763
 N         -5.0188133773        0.2861982736        0.0053681303
 H          5.9793721898       -0.2658621219        0.0068292047
 H          5.1262795795        1.0005213867       -0.8775670478
 H          5.1221893363        1.0014354789        0.8859413177
 H          3.8239110470       -1.1307551717        0.8838432189
 H          3.8280753090       -1.1320446345       -0.8790225081
 H          2.5673943631        1.0178975918        0.8794413882
 H          2.5706666197        1.0159479778       -0.8834960925
 H          1.2939125695       -1.1223715049       -0.8835114008
 H          1.2916850938       -1.1213448671        0.8789648146
 H          0.0348909539        1.0289322890        0.8756611058
 H          0.0347727828        1.0251292245       -0.8873448189
 H         -1.2399520739       -1.1111460834        0.8805563746
 H         -1.2401920919       -1.1157709293       -0.8818830099
 H         -2.5035956432        1.0289472133       -0.8904396796
 H         -2.5003917415        1.0371272988        0.8759351860
 H         -3.7768843566       -1.1105892604        0.8873268110
 H         -3.7834183952       -1.1142499049       -0.8803103652
 H         -5.0481916434        0.8867125564        0.8228459914
 H         -5.0512668875        0.8888692480       -0.8104231462
