! pbe def2-sv(p) def2/J RI DEFGRID1 loosescf d4 GCP(DFT/SV(P)) printgap
%output
    printlevel normal
end
* xyz 0 1
C 2.9105630817 -1.7273659394 -2.3942308371
C 3.0888870826 -0.5043261301 -1.5173850739
O 2.7146920338 -0.828510126 -0.1651203221
P 1.7676523057 0.0160043382 0.7961392588
S 1.1678937888 1.7419332842 0.0526715099
O 2.5793903033 0.1757820346 2.154813677
C 3.4022460816 1.3187067787 2.4443219565
C 4.6417212604 1.3536666426 1.5727929105
S 0.5167746828 -1.4542886279 1.6168196999
C -0.2637724734 -2.1631209819 0.1175122052
S -0.368131288 -1.0281718808 -1.2906864486
P -1.9703078645 0.1961596323 -0.6901727855
S -2.3406661126 1.7946213092 -1.7572873779
O -1.6077805001 0.4022537741 0.8377635815
C -2.4038676034 1.2615399945 1.6833397693
C -1.5818161308 1.5868702362 2.9128284836
O -3.2248387664 -0.7871976628 -0.5491831997
C -4.1433271818 -1.0097232964 -1.6305369757
C -3.5075817648 -1.7982304938 -2.7577460652
H 1.8578077574 -1.9888304275 -2.4703913162
H 3.2932548653 -1.5073230058 -3.385376336
H 3.459961053 -2.5643582235 -1.9733776346
H 2.4777654663 0.3355256293 -1.8656958879
H 4.1367744283 -0.1960203384 -1.4844819561
H 2.8059349838 2.2257096144 2.2987842389
H 3.651341596 1.2032716319 3.5000967481
H 4.3562156077 1.5316199888 0.536176916
H 5.2920221692 2.1583244249 1.9012951308
H 5.172584662 0.4074844794 1.6392000311
H -1.2624259757 -2.4835950648 0.4070188319
H 0.3379150378 -3.0017919395 -0.2258123334
H -2.6580788914 2.1651297785 1.118221148
H -3.3201208435 0.7245418448 1.9400104342
H -1.3072969385 0.6711825561 3.430178802
H -0.6734687343 2.1098096762 2.6213037103
H -2.1623303721 2.2212451268 3.5742718514
H -4.9688041623 -1.5530691206 -1.1688485272
H -4.4904752503 -0.0365960455 -1.9920645143
H -3.1036484113 -2.7370505997 -2.3882213561
H -4.2544656996 -2.0016970041 -3.518203873
H -2.7001467904 -1.2169419822 -3.203020096
*
