! pbe def2-sv(p) def2/J RI DEFGRID1 loosescf d4 GCP(DFT/SV(P)) printgap
%output
    printlevel normal
end
* xyz 0 1
C 4.4789651443 -3.1243192587 -2.1420347107
C 3.0957960739 -3.1693313753 -1.5222382957
O 2.8484324492 -1.9007261555 -0.8846064121
C 1.8944476389 -1.8297822789 0.0160387351
O 1.2111925511 -2.7657821674 0.3704309326
C 1.7235997812 -0.4128437484 0.5328311395
C 1.0284281655 0.4201985054 -0.5500790604
H 1.7061748072 0.5772269156 -1.3925821575
C 0.5673814703 1.7585911919 -0.00310987
O -0.6041327345 2.083346518 0.0153975252
O 1.5579289198 2.4700785008 0.4478838807
C 1.2705018456 3.7600000061 1.0351860953
C 1.1691335899 4.8330204178 -0.0356282132
S -0.4276809856 -0.4219496511 -1.2653193645
P -1.8929944937 -0.1079221131 0.238409206
S -1.4323087332 0.1727009001 2.1327953618
O -3.0379048066 0.791257458 -0.3872963703
C -3.4096370849 2.0954964447 0.0645860601
O -2.7091396625 -1.4761083683 0.0424812306
C -2.2015745846 -2.7114283306 0.5509097634
H 5.2298295389 -2.9689304043 -1.3730073378
H 4.6750867926 -4.0638632907 -2.6476508292
H 4.5371283772 -2.311993859 -2.8598751465
H 3.0069421105 -3.9592448465 -0.7701083789
H 2.3192112262 -3.3195954167 -2.2783546677
H 2.6966487919 0.0281935005 0.7462574932
H 1.1176103402 -0.4462036624 1.4402780901
H 0.3411098933 3.6818941936 1.6055373828
H 2.1125890711 3.9396211944 1.7029380136
H 0.3306756344 4.6283420334 -0.6972559848
H 1.0136981104 5.7958875348 0.4394036309
H 2.0836365062 4.8660055751 -0.6209760027
H -2.9432248267 2.8418573774 -0.5754017388
H -3.091665849 2.2458393256 1.0975122064
H -4.4939380747 2.1408822943 -0.0098005429
H -2.9062373449 -3.4725839016 0.2278036648
H -2.1525765885 -2.6711580753 1.6404134123
H -1.2046174237 -2.9214980949 0.1582344913
*
