! pbe def2-sv(p) def2/J RI DEFGRID1 loosescf d4 GCP(DFT/SV(P)) printgap
%output
    printlevel normal
end
* xyz 0 1
C 4.2636061868 2.0944979942 -0.9847693855
C 4.5047442392 0.6034408842 -0.8663845356
O 3.282718247 -0.1516968638 -0.9541614674
P 2.1719008688 -0.1074210719 0.1787773419
S 2.85446625 -0.0504433104 2.0191655638
O 1.2678977943 -1.3507414013 -0.1967646984
C 1.4630479199 -2.6592835258 0.3713086658
C 2.782826643 -3.2681929743 -0.0515883322
S 0.8817229731 1.4491206696 -0.4120829402
C 0.0139398202 1.611182675 1.1709131279
S -0.9626860365 0.1462773783 1.6256056046
P -2.1975258994 0.0011410527 -0.0968524848
S -1.5783363793 -0.9537796562 -1.6970162847
O -2.6141506171 1.5106002507 -0.2783861101
C -2.8665238977 2.1346760554 -1.5593477931
C -2.0292458004 3.3922569592 -1.6751904883
O -3.524313787 -0.6246180604 0.5179855012
C -3.7680923273 -2.0400997078 0.6140691369
C -5.2585855533 -2.274267392 0.4659576103
H 3.6840999287 2.3131996303 -1.8782848198
H 3.7157253208 2.4538544834 -0.1145574096
H 5.217656731 2.6090983794 -1.0375846857
H 4.9882939913 0.3665822046 0.0868761893
H 5.1058105648 0.2239797566 -1.6937152856
H 1.4021571826 -2.5731588527 1.4615670296
H 0.6126049657 -3.2317488597 -0.0034937556
H 2.8423970791 -4.288119235 0.3151132522
H 2.8647542705 -3.2652371161 -1.1355684997
H 3.6069742423 -2.6914117757 0.3673335769
H -0.6415577292 2.4741239193 1.0891621339
H 0.7416968844 1.7369509935 1.9732562661
H -2.6249222842 1.4213660351 -2.3545059672
H -3.9342019457 2.3598592377 -1.5831854653
H -2.2593176156 4.0720172051 -0.8597466004
H -0.9698186028 3.1440675114 -1.6442627176
H -2.2526868381 3.8783132246 -2.619226648
H -3.2056078642 -2.5478781224 -0.1775255176
H -3.4058485287 -2.3764601884 1.5890517991
H -5.5924957539 -1.9442513745 -0.5138331263
H -5.4652470158 -3.3336060954 0.5774172709
H -5.7971629388 -1.718617966 1.2280093437
*
