! pbe def2-sv(p) def2/J RI DEFGRID1 loosescf d4 GCP(DFT/SV(P)) printgap
%output
    printlevel normal
end
* xyz 0 1
C 3.5185026688 -2.241032788 -1.7781694296
C 3.9785707828 -0.8029191663 -1.905217153
O 3.5441514077 0.0176227953 -0.8080926244
P 2.0115582754 0.3682272965 -0.5240905963
S 0.9504603786 0.685990087 -2.137106501
O 2.1661950547 1.659444215 0.3599915612
C 3.1808573172 1.888856801 1.3661961743
C 3.0743298849 0.9199297715 2.523898876
S 1.3283414868 -1.2270481826 0.716603913
C -0.0352272452 -1.8731735032 -0.2972238269
S -1.650744157 -1.8265358179 0.5210941463
P -2.0630183093 0.2590699248 0.4354496924
S -0.8076693414 1.4994533626 1.2820304086
O -3.5682749502 0.3113724332 0.944623819
C -4.0681489598 -0.3257735025 2.1365196185
C -3.2474458751 -0.001814812 3.3666161048
O -2.2249336664 0.633536834 -1.0852933479
C -3.1322233571 -0.0481602938 -1.9899860912
C -2.7080944675 0.2874325353 -3.4045555777
H 3.7753122163 -2.6370603038 -0.7990658562
H 2.4399979633 -2.2986669489 -1.9144664665
H 4.0009646922 -2.8367937046 -2.546341255
H 3.6046080613 -0.3606564975 -2.8339273446
H 5.0661997087 -0.7242475873 -1.8685183077
H 4.1592253942 1.8267447268 0.8848679841
H 2.9809182431 2.9135054054 1.6835889693
H 2.0617123507 0.9288492867 2.9218478963
H 3.3171961897 -0.0906627991 2.1984458037
H 3.7687874813 1.2182968537 3.302915874
H 0.1541964915 -2.9268042039 -0.4860104519
H -0.0756603522 -1.2951917383 -1.2258550548
H -5.0864751871 0.0573683307 2.2227122775
H -4.0891934656 -1.4043862833 1.9583964181
H -3.1798045495 1.0748048128 3.5053919962
H -3.7119270856 -0.4505053089 4.2386843366
H -2.2377929114 -0.3964976512 3.2584785869
H -3.0759285423 -1.1238429633 -1.7977614289
H -4.142575095 0.3049443674 -1.7753572298
H -1.6679124923 0.0098859495 -3.559974974
H -3.3373253517 -0.2515740267 -4.1049880548
H -2.8013338348 1.355443878 -3.5790525815
*
