! pbe def2-sv(p) def2/J RI DEFGRID1 loosescf d4 GCP(DFT/SV(P)) printgap
%output
    printlevel normal
end
* xyz 0 1
C 3.1790523168 -3.7928709445 1.1220401315
C 2.8984973617 -3.3166299719 -0.2941120429
O 2.8949793066 -1.8767193969 -0.3633243991
C 1.7869826698 -1.2352260752 -0.068692215
O 0.7442087972 -1.7818930625 0.2378866382
C 1.964608052 0.2637038448 -0.1597928829
C 0.6422435341 0.9352924211 -0.4871623744
H 0.1833679 0.4941873778 -1.3820045587
C 0.7118224734 2.4427706139 -0.6737548885
O -0.1646866315 3.0672141767 -1.2274769599
O 1.8001749178 2.9585740595 -0.1532128062
C 1.9539763513 4.3933648555 -0.174755199
C 1.2753058736 5.0225310528 1.0310276791
S -0.5851708905 0.7069791537 0.8596869276
P -1.7364325072 -0.8760892957 0.0091043042
S -1.4180327546 -1.3732639267 -1.8577322833
O -1.8030753143 -2.0821832377 1.0195141068
C -2.1000511035 -1.898619438 2.4177281567
O -3.2270120634 -0.2927463849 0.2199730789
C -3.6953589127 0.8099248229 -0.5553691144
H 3.2499527834 -4.8754879319 1.1271646
H 4.113484886 -3.3699042117 1.4802326653
H 2.3721643021 -3.489988699 1.7854035851
H 1.929635061 -3.6842460515 -0.6453584178
H 3.6896408003 -3.6171714511 -0.9808927248
H 2.7073701178 0.4849954378 -0.9263813059
H 2.3414866376 0.6260917528 0.7996007869
H 3.0322343572 4.5500145754 -0.1546168466
H 1.5266226118 4.7761422637 -1.105439352
H 1.673521961 4.599681738 1.9489090614
H 1.4501889677 6.0931928799 1.0228402562
H 0.2039652697 4.8384514912 0.9940416523
H -1.3856006885 -1.2047300299 2.8608150044
H -2.0003496444 -2.887615461 2.8574816627
H -3.1138237841 -1.5196424084 2.5351221388
H -3.6152624493 0.5810114617 -1.6195158797
H -3.1129905872 1.7057937424 -0.3325771644
H -4.7350976525 0.9494918624 -0.2719594849
*
