! pbe def2-sv(p) def2/J RI DEFGRID1 loosescf d4 GCP(DFT/SV(P)) printgap
%output
    printlevel normal
end
* xyz 0 1
C 2.7953989234 -3.9682365526 0.0046511903
C 2.7444946706 -2.5059422613 0.398218234
O 2.3034163618 -1.7545081761 -0.7498305717
C 2.0866639167 -0.4696994615 -0.6104268369
O 2.2272880134 0.1505753291 0.4265244547
C 1.6496008347 0.1898188805 -1.9045273457
C 0.3753117913 1.0079071641 -1.6744740478
H 0.2357322069 1.7183175189 -2.4922338197
C 0.4387423988 1.7588066028 -0.3592584114
O -0.3337664464 1.518343432 0.5568208909
O 1.3307386491 2.6980027592 -0.3557010749
C 1.5484951668 3.4266038764 0.873302788
C 2.4827831625 4.5795038387 0.5685349621
S -1.1228863898 -0.0343564297 -1.6726415743
P -1.582143582 -0.4763186126 0.3484482746
S -0.4390359585 -1.1815647473 1.7737091132
O -2.6951004443 0.5172440936 0.9328977365
C -3.7278138476 1.0702470724 0.1014296064
O -2.4961762119 -1.6944545469 -0.2481221797
C -3.1830253058 -2.5955920376 0.6165598205
H 1.8047162671 -4.3068896243 -0.2837621811
H 3.4749141088 -4.1057882653 -0.8310584182
H 3.1389895283 -4.5527793644 0.8512280387
H 3.7269630807 -2.1264745807 0.6952323552
H 2.0414295072 -2.3254533215 1.218710541
H 1.4814105785 -0.5664932076 -2.6692974582
H 2.4496820646 0.8648909644 -2.2153418512
H 0.5793630511 3.7654999821 1.2515743629
H 1.9776777286 2.7239481341 1.5944410035
H 3.4235054418 4.2013375547 0.1810615144
H 2.0354634203 5.2399072027 -0.1680398685
H 2.6700992481 5.1347482535 1.4813371108
H -3.3656089114 1.9885307969 -0.3599329009
H -4.5590613059 1.2828296382 0.769753762
H -4.0235563575 0.3579060353 -0.6704610959
H -3.9929674313 -2.0840811121 1.1389026297
H -2.4883702652 -3.0127589173 1.348719023
H -3.5751289914 -3.3786709072 -0.0275999771
*
