! pbe def2-sv(p) def2/J RI DEFGRID1 loosescf d4 GCP(DFT/SV(P)) printgap
%output
    printlevel normal
end
* xyz 0 1
C 4.4117846446 -1.4225189375 -2.2040604597
C 4.2809818498 -1.2550254267 -0.7033705338
O 3.6919014785 0.0347801351 -0.3984150854
P 2.2362150062 0.2183755379 0.1750948044
S 1.8409938426 2.1250444646 0.3440468643
O 2.3338671591 -0.6646454505 1.4978152549
C 1.2659559789 -0.8502379401 2.4420846692
C 1.2608891698 0.2496518389 3.4855667326
S 0.95653883 -0.9292490044 -1.0892904095
C 0.0708271392 0.4176821122 -1.9252242132
S -1.7288264623 0.1867193217 -2.0015802779
P -2.2351386723 0.0198633428 0.0575853205
S -4.1382833171 0.2257260023 0.4644121836
O -1.2304265457 0.9937872178 0.8145117438
C -1.6498094275 2.3154545005 1.201081806
C -1.7786378137 3.2468727256 0.0130179097
O -1.5875401831 -1.3396257079 0.5738023003
C -2.2788824813 -2.5968011802 0.4663793535
C -2.3067809957 -3.1119596011 -0.9591660216
H 3.4305301976 -1.4768156081 -2.6687192122
H 4.9559560363 -0.5814768271 -2.6246063372
H 4.9535738025 -2.3396401312 -2.4121766211
H 5.2579276782 -1.2394547917 -0.2178783448
H 3.6666199093 -2.0444507882 -0.2654766787
H 0.3117318154 -0.8882116747 1.9112430383
H 1.4721670498 -1.8227030895 2.8940379101
H 2.2177024454 0.2844662722 3.9997045333
H 1.0842252469 1.2137109332 3.013449074
H 0.4705975551 0.0585121411 4.2044644339
H 0.3828418673 0.4544511756 -2.966097569
H 0.3090032122 1.3502933423 -1.4073693525
H -2.6034583735 2.2321703614 1.7311186656
H -0.8689234541 2.6541477766 1.8832616435
H -0.8210061888 3.3507606332 -0.4919482648
H -2.5199367456 2.8606056208 -0.6864063137
H -2.0989439843 4.2234169714 0.3614324833
H -1.7147763834 -3.262494764 1.1212447908
H -3.294682075 -2.4673468792 0.854154991
H -1.3006216075 -3.1275975018 -1.3722482099
H -2.7154179473 -4.1172928464 -0.9669474007
H -2.9330605507 -2.4715334954 -1.5788153787
*
