! pbe def2-sv(p) def2/J RI DEFGRID1 loosescf d4 GCP(DFT/SV(P)) printgap
%output
    printlevel normal
end
* xyz 0 1
C 5.3835586013 -1.9582933061 -1.2192010121
C 4.6087860692 -0.6681602571 -1.00261196
O 3.1905342345 -0.8901035908 -1.1235452199
C 2.5262051357 -1.28862539 -0.0552325326
O 3.0216933172 -1.481950649 1.0307753032
C 1.0521234255 -1.4905633999 -0.3617422156
C 0.4590997028 -0.2475151848 -1.0247579294
H 1.010423514 -0.0213003303 -1.9418774274
C 0.5084912878 0.9549384183 -0.1045066071
O -0.4890466968 1.5705201372 0.2166994746
O 1.7209949495 1.2230343513 0.2931087864
C 1.9125894678 2.3139480994 1.2223437011
C 2.0334580768 3.6387398621 0.4888888628
S -1.2644360388 -0.4929874717 -1.5428395976
P -2.3310451613 -0.2021245931 0.289191101
S -1.5178928112 -0.4877243744 2.0520552394
O -3.2832553191 1.066895827 0.0967155269
C -3.0858612632 2.4034102506 0.5536179837
O -3.4265531683 -1.3475066041 0.1233248786
C -4.3025268807 -1.4531021213 -1.0114548466
H 6.4474205143 -1.7475973796 -1.1883043231
H 5.1432281552 -2.6739580879 -0.4362188664
H 5.1311651645 -2.3898318636 -2.1837836911
H 4.8361512701 0.0660311123 -1.7754142689
H 4.8123352866 -0.2564959484 -0.0103941325
H 0.5344531324 -1.7218246685 0.5721341108
H 0.9518842796 -2.3343006852 -1.0466110002
H 1.0719064522 2.3211719084 1.921561865
H 2.8326300013 2.05633016 1.7472849368
H 2.2411321515 4.4229961076 1.2091208353
H 2.841505476 3.5944003803 -0.2357313405
H 1.1041334112 3.8703339041 -0.0258392943
H -2.5162720138 2.9643522974 -0.1846931564
H -2.5552768287 2.4050145967 1.5053717552
H -4.0844716053 2.8189283727 0.6718995861
H -4.9660067073 -0.5912681566 -1.0500055883
H -4.866474054 -2.3682329655 -0.8496530637
H -3.7181350698 -1.5185713442 -1.9296506785
*
