! pbe def2-sv(p) def2/J RI DEFGRID1 loosescf d4 GCP(DFT/SV(P)) printgap
%output
    printlevel normal
end
* xyz 0 1
C 3.5019677713 -3.0413409831 0.4903914418
C 2.9806614935 -1.6837960584 0.9326712466
O 2.7147214849 -0.8388113777 -0.2033937861
C 1.5735678598 -0.9664494021 -0.8394994288
O 0.6858692062 -1.7403039803 -0.5304659392
C 1.46844282 -0.0178278686 -2.0143557433
C 0.2389941549 0.8812040888 -1.8699347208
H 0.1173442861 1.4777324062 -2.7792382487
C 0.3258033741 1.8305284836 -0.6860432968
O -0.619898298 2.0318693912 0.0499907555
O 1.499566738 2.390114676 -0.5928228157
C 1.7742847793 3.2686142557 0.5203822538
C 2.4586058548 2.4959102944 1.635279602
S -1.3260958087 -0.0415453088 -1.7326909994
P -1.53747197 -0.4572554767 0.3594904211
S -0.297841285 -0.2041524586 1.8589954026
O -2.9833550216 0.1891099237 0.649847084
C -3.2384211135 1.5152277926 1.1029814687
O -1.971303724 -1.9823941563 0.3609228364
C -2.91731562 -2.5531331757 -0.556564571
H 4.3812504568 -2.9186664973 -0.1360643313
H 3.7628403102 -3.6245459578 1.3671385267
H 2.7349719094 -3.5724155281 -0.0690564962
H 3.727717752 -1.1356398489 1.5062873007
H 2.0618591344 -1.7839247923 1.5179448702
H 1.3566308654 -0.6132972926 -2.9215654194
H 2.3688969121 0.5928631358 -2.0666375163
H 2.428023634 4.0365870296 0.1061908896
H 0.8340057261 3.7056373962 0.8650998319
H 3.3679459645 2.0315601436 1.2644385535
H 2.7040185354 3.1750888282 2.4445564583
H 1.7972746044 1.7184203306 2.0161388565
H -2.5064480066 1.8018679485 1.8588140363
H -4.2392188352 1.4898301653 1.5280273528
H -3.1873585754 2.2110207283 0.2667494517
H -3.0825525911 -3.5653165421 -0.1960979989
H -2.4941968015 -2.568506707 -1.5609184913
H -3.8443147071 -1.9816578701 -0.5461526229
*
