! r2scan-3c def2/J RI DEFGRID2 scfconv6 printgap
%output
    printlevel normal
end
* xyz 0 1
C 0.595739106 1.7076290244 -0.0669904828
C 1.3933963969 0.4116250075 -0.2670490709
H 1.5999210048 0.2652111542 -1.3383957051
C 0.5466466554 -0.7732779515 0.2178820123
H 0.3647861067 -0.6663403821 1.2973251556
C -0.796678429 -0.7503278281 -0.5154316957
H -0.5993749293 -0.8254091345 -1.5979270117
C -1.4837191466 0.6012666257 -0.258991112
H -2.3913173778 0.6594769559 -0.8735141365
O -0.6660849488 1.6544911856 -0.7181226317
O -1.7662362401 0.7164122066 1.0945415579
O -1.6534144446 -1.7792616382 -0.1079599057
O 1.1660385203 -2.00741471 -0.0560536944
O 2.5880005531 0.4041582043 0.4776454552
H 1.1044986792 2.5634081502 -0.5111331414
H 0.4594822447 1.8703231629 1.00924516
H -2.4135209258 1.4215498789 1.2468008766
H -1.135537562 -2.5989324652 -0.0692663716
H 2.0522470616 -1.9944416072 0.334689918
H 3.1807838699 1.1000589991 0.1612308195
*
