! pbe def2-sv(p) def2/J RI DEFGRID1 loosescf d4 GCP(DFT/SV(P)) printgap
%output
    printlevel normal
end
* xyz 0 1
C 4.3055172568 2.0308731773 0.8426843001
C 4.3218604485 1.3406593385 -0.5066006208
O 3.5885200101 0.1018548746 -0.4709461093
P 1.9929577546 0.0699333565 -0.4327960592
S 1.1010056747 1.6011630911 -1.2507633634
O 1.5752471713 -0.1024208329 1.0901982884
C 2.1659447923 -1.1176673456 1.9404403078
C 2.1543685915 -0.5969354533 3.3626063489
S 1.8295137377 -1.8402824598 -1.321258112
C 0.0235925083 -1.9578263958 -1.4586072745
S -0.8426051305 -1.923445599 0.1399235691
P -1.8937535771 -0.0998570325 -0.0243134609
S -2.2553498294 0.449406809 -1.8794211258
O -1.0777559813 0.8286725492 0.9553964339
C -1.6044229405 2.0062042905 1.6063537989
C -2.1138965606 3.0316095592 0.6162729688
O -3.2097111627 -0.3546249211 0.8308255596
C -4.3578189043 -1.0395214354 0.2930005856
C -5.5870536237 -0.5565826974 1.0366282402
H 4.8923879331 2.942385233 0.7886951535
H 3.2792418566 2.2848627749 1.1080856721
H 4.7216596426 1.3790599498 1.6066466381
H 5.3291518124 1.0448655361 -0.8027891697
H 3.8820108275 1.9850905355 -1.2743921012
H 1.5569981864 -2.0208278804 1.843846337
H 3.1809416374 -1.3248365793 1.590703717
H 2.7503343148 0.3082391092 3.4411381715
H 1.1347280106 -0.3724673893 3.6629748776
H 2.5640485053 -1.3563115759 4.0207734323
H -0.1702322834 -2.9217464635 -1.9222167524
H -0.3638380998 -1.1420218862 -2.0770166227
H -2.3942805925 1.6907673392 2.2916500247
H -0.7478859836 2.3855659307 2.166264903
H -2.9736726084 2.6377842239 0.0750892435
H -2.4068266206 3.9336486409 1.1439846257
H -1.3356847437 3.2717258579 -0.1065422994
H -4.4245677875 -0.820623617 -0.7782148572
H -4.2021554725 -2.1119505263 0.432229633
H -5.4762370855 -0.7464338562 2.1002787577
H -5.726962779 0.509531398 0.8801123612
H -6.4569008821 -1.0880348073 0.6650856293
*
