! wb97x-v def2-tzvp def2/J RIJCOSX DEFGRID2 scfconv7 GCP(DFT/TZ) printgap
%output
    printlevel normal
end
%cpcm
    smd true
    smdsolvent "water"
end
* xyz 0 1
C 0.0009233863480229166 -2.4710898512214436 0.0006478349702835393
C 1.2070793205585784 -1.7797763294101245 0.014875239623228311
C 1.197471608149569 -0.3867220329769414 0.019850024254621606
C -0.0010459266419260331 0.3195358751385561 0.0026271367401280027
C -1.1987207583919028 -0.38866066483105866 -0.015615999262274345
C -1.2064686066366705 -1.781443307982756 -0.012927591100150232
C -2.481469381035828 0.3879240835602764 -0.0035622975270022685
F -3.558590026281188 -0.3764504778315696 -0.2839604819436652
F -2.7118665055568467 0.9623175810172618 1.2094204886320725
F -2.4681544469741983 1.4025213146164692 -0.905761481060541
C 2.480827769004118 0.3888402571051813 0.003239816542360984
F 2.733689140057441 0.9191216619612328 -1.2255150715529874
F 2.4537080124808472 1.4343872148114623 0.86799679530853
F 3.552038080581125 -0.36672673091054514 0.3284204986400502
H 0.0016698038470762619 -3.5552278514585742 9.035864021757717e-05
H 2.144775312637534 -2.323099553270059 0.02347991331469275
H -0.002114771430363645 1.4047016450792087 0.0031549769525176896
H -2.1432503987707423 -2.326228584873264 -0.02250492416034446
*
