! pbe def2-sv(p) def2/J RI DEFGRID1 loosescf d4 GCP(DFT/SV(P)) printgap
%output
    printlevel normal
end
* xyz 0 1
C 3.3819699196 -2.9606999164 -0.0697758837
C 3.9027352805 -2.0810873966 -1.1847610609
O 3.9700806388 -0.6814692515 -0.8122598848
P 2.8042443043 0.1918482487 -0.2264267467
S 3.1487495646 2.108594783 -0.4344588913
O 2.7517886157 -0.2954872925 1.2876473767
C 1.9815369384 0.3611186395 2.3101075632
C 0.7908436306 -0.4928554811 2.7015227402
S 1.03724047 -0.5292307244 -1.2032364479
C 0.2081956823 1.0533645227 -1.4496878653
S -0.7256778856 1.6057458646 0.0020087701
P -2.3660315255 0.3023147495 -0.3007126558
S -3.0398764382 0.1316965395 -2.1261300498
O -3.4689468297 0.8415585728 0.6970041927
C -3.2082887438 1.0087676989 2.1153141542
C -4.5443922582 1.1585895913 2.8122146218
O -1.767218257 -1.037576841 0.3381669023
C -2.2138520725 -2.3425882157 -0.0769845774
C -3.6021563752 -2.638969022 0.4520253725
H 2.3420897837 -2.7185019966 0.1405114613
H 3.4474115265 -3.9995204717 -0.3782942224
H 3.9701762186 -2.8131388739 0.8320067329
H 3.2727665574 -2.1640127469 -2.0739803881
H 4.9368461489 -2.3180504368 -1.4391800748
H 2.6684044998 0.486292303 3.1497135894
H 1.6687936402 1.3486188333 1.9538819865
H 0.116721983 -0.6186456485 1.8578439496
H 1.1288626612 -1.4711669354 3.030886909
H 0.2578636524 -0.0042259867 3.5108790986
H -0.4784955075 0.9311573375 -2.2880178403
H 0.9560867927 1.8221560249 -1.6507475465
H -2.6608745028 0.1345544888 2.4759042773
H -2.5877059063 1.8998550103 2.2383118472
H -4.3769248675 1.3105021037 3.8735739914
H -5.0806693421 2.011814624 2.4070790261
H -5.1479148605 0.2671926043 2.6662619459
H -2.1976147786 -2.3849995458 -1.170155878
H -1.4654499403 -3.0232614008 0.3302311601
H -4.3100927714 -1.9175595913 0.0435744741
H -3.9002890072 -3.6364455568 0.1451619352
H -3.6180415135 -2.5765016101 1.5370216529
*
