! pbe def2-sv(p) def2/J RI DEFGRID1 loosescf d4 GCP(DFT/SV(P)) printgap
%output
    printlevel normal
end
* xyz 0 1
C 5.0980292595 -0.7235931958 -2.6697113434
C 3.7404636168 -1.0822846112 -2.1007982503
O 3.4487947003 -0.1594501208 -1.0309873641
P 1.9615837721 0.0599065634 -0.5126761587
S 0.6824029893 0.5216485574 -1.9193650552
O 2.1354656723 1.220832638 0.5307513586
C 3.1387190026 1.2652731271 1.5798100314
C 2.5652144864 0.7927408061 2.9010810896
S 1.6358922573 -1.7658230358 0.5264242262
C 0.0082978831 -1.4655518992 1.268503372
S -1.3703231929 -1.4941251509 0.0876749429
P -2.0806346844 0.509320324 0.2851328982
S -0.9875798212 1.6629479991 1.4300453125
O -3.6031947691 0.3044586937 0.7192162853
C -4.0641384298 -0.5434933989 1.7853864803
C -3.5937439249 -0.0781710925 3.1483505926
O -2.2817289163 1.1902686301 -1.1161673663
C -3.2503151544 0.8160999246 -2.1243841865
C -3.0008217148 -0.5701164533 -2.6792574501
H 5.8562456117 -0.7916765696 -1.8951541526
H 5.3395438497 -1.4128929745 -3.4719600378
H 5.0825521943 0.2903485929 -3.0599222984
H 3.7336350518 -2.0934885849 -1.6857404241
H 2.9524953419 -0.9976266695 -2.8565896467
H 3.9991488942 0.6687509865 1.2727252338
H 3.414430031 2.3198600151 1.6258528755
H 1.6193361215 1.2968387317 3.0896365373
H 2.4033882689 -0.2822325994 2.8931583489
H 3.2631024308 1.0380042193 3.6952120722
H 0.0087584467 -0.4914518453 1.7678859065
H -0.1384658534 -2.2811006924 1.971751239
H -5.1511304528 -0.4896187388 1.7013464716
H -3.7274135746 -1.5648182129 1.5843697687
H -3.8813659857 0.9571675 3.3137482886
H -4.0408351691 -0.703196791 3.9144793095
H -2.5097534333 -0.1451901018 3.2191562857
H -4.2472433242 0.8976155696 -1.6863428281
H -3.1122646967 1.5812512655 -2.8899860967
H -1.9645642607 -0.6579035331 -3.000100174
H -3.2010837288 -1.3285840112 -1.9238906047
H -3.6544707533 -0.7360461707 -3.5296964073
*
