! pbe def2-sv(p) def2/J RI DEFGRID1 loosescf d4 GCP(DFT/SV(P)) printgap
%output
    printlevel normal
end
* xyz 0 1
C 1.2606512837 -2.9288844868 0.7768231187
C 2.7419084826 -2.6309473565 0.6592909835
O 3.0439986543 -1.2762953927 1.0398966846
P 2.7811083938 -0.0478720714 0.0842144796
S 3.0794670582 -0.355442455 -1.8351259722
O 3.7992412857 0.9306487287 0.7972353161
C 3.9740314695 2.2802961436 0.3219684619
C 5.1939370417 2.8568832149 1.0112952651
S 0.8815189276 0.7825764856 0.5940158557
C 0.0317485891 0.665190085 -1.0070515359
S -1.1495542321 -0.6969050371 -1.0995926108
P -2.8684634278 0.2814836788 -0.2820880009
S -2.7631991784 2.2384592045 -0.2819428301
O -3.146977532 -0.4602284169 1.1008959189
C -2.1948303297 -0.6018870816 2.1671537421
C -1.9689294467 0.6956992172 2.9160485954
O -4.1121616433 -0.176362995 -1.1296043116
C -4.7384955986 -1.4825166687 -1.0891681443
C -3.8141987243 -2.5847934455 -1.560523616
H 1.0929574964 -3.9873548567 0.6061266593
H 0.9056173835 -2.6634379211 1.7694432178
H 0.7028508555 -2.3631204568 0.0310650853
H 3.0930328027 -2.7974815481 -0.3645506637
H 3.3290154308 -3.2347377443 1.3529086725
H 4.1033121031 2.2567531041 -0.7658589723
H 3.0732054793 2.8537205175 0.5620814574
H 5.3392409461 3.8808577739 0.6831799914
H 5.0519432478 2.8384597871 2.0877455086
H 6.0736380325 2.2702397636 0.7627769616
H 0.7771653704 0.4981323191 -1.7876588458
H -0.5082081888 1.6016663807 -1.1561614698
H -2.6405066909 -1.3605945288 2.8131783041
H -1.2540284176 -0.9763615472 1.7522530889
H -1.4973123018 1.4314022178 2.2669052866
H -2.915473035 1.0983193796 3.2669733853
H -1.317877639 0.5111502056 3.764302894
H -5.0814711862 -1.6648827531 -0.0693164716
H -5.5952605012 -1.3651046108 -1.7544659957
H -2.9786690282 -2.7023094701 -0.8728426941
H -4.3685687727 -3.517142787 -1.6043831793
H -3.4218109851 -2.3553589696 -2.547974266
*
