! pbe def2-sv(p) def2/J RI DEFGRID1 loosescf d4 GCP(DFT/SV(P)) printgap
%output
    printlevel normal
end
* xyz 0 1
C 4.8621076748 0.3204401088 -1.8111278639
C 4.5876131092 -0.8160754051 -0.8419966488
O 3.1964727506 -1.180561837 -0.9396940518
C 2.4759018322 -1.2833343826 0.156718704
O 2.9034375696 -1.1684139864 1.2829539198
C 1.0210696989 -1.5734034738 -0.1736131818
C 0.4409399214 -0.4404479931 -1.0253522081
H 1.0031560034 -0.3550383404 -1.958717108
C 0.4855953118 0.8750618012 -0.2772352222
O -0.5212228339 1.4688257304 0.0599171566
O 1.7014096562 1.2704951568 -0.0335166874
C 1.8918838198 2.4374641101 0.8015944244
C 3.2720716919 2.3516689051 1.4222741383
S -1.2800504438 -0.7552352108 -1.5111506512
P -2.3648500065 -0.2439389531 0.2625423202
S -1.6064034673 -0.3769037765 2.0672769687
O -3.2804828778 1.0226218177 -0.077561731
C -3.0889546237 2.3779331913 0.3228440313
O -3.486273348 -1.3763557741 0.1819604293
C -4.3442858401 -1.570598649 -0.9542917766
H 4.2286442642 1.1713602145 -1.5757307421
H 5.9032859477 0.6151476601 -1.7327060404
H 4.6561031637 0.0013867026 -2.8283420972
H 4.7997366714 -0.5308964872 0.191913572
H 5.1671604866 -1.705388252 -1.1007886226
H 0.4671768194 -1.6796809321 0.7619574741
H 0.96127441 -2.502489152 -0.7414147609
H 1.7829103069 3.3214667367 0.1674346765
H 1.1054155726 2.4426043911 1.5619012024
H 3.3745900809 1.4126084609 1.9611374401
H 4.0388805581 2.4044775842 0.6555082234
H 3.4020624623 3.1756933408 2.1155868488
H -2.5899067458 2.4202165402 1.2908821532
H -4.0872173369 2.8056906606 0.3889336299
H -2.4901298386 2.900026997 -0.4208929707
H -3.7463523972 -1.7657589279 -1.8448919474
H -4.9661818941 -0.6903342249 -1.1059437908
H -4.9533531107 -2.4356733646 -0.7045526145
*
