! pbe def2-sv(p) def2/J RI DEFGRID1 loosescf d4 GCP(DFT/SV(P)) printgap
%output
    printlevel normal
end
* xyz 0 1
C -0.7506072655 -1.1716546001 0.3240408029
C 0.7466878245 -1.2785788418 0.0140780607
C 1.4093605425 0.0786338091 -0.3082375901
C 0.6434847935 1.2536640007 0.2149541492
C -0.6782129368 1.2654537261 0.1464757748
C -1.3816611635 0.0453776397 -0.3596693815
H -0.8947810406 -1.0609899352 1.4009728208
H -1.2589429364 -2.0851422768 0.0127113085
H 1.2496407806 -1.7292391641 0.8707575053
H 0.8969735995 -1.9455198175 -0.8362298954
H 2.4312848806 0.0912728302 0.0717014184
H 1.468747618 0.1863729505 -1.3960553718
H 1.2048122477 2.0924574999 0.5990349095
H -1.2647311972 2.1045532925 0.4883987549
H -2.449745893 0.0892510394 -0.1460294579
H -1.2527980066 -0.0415837836 -1.4423094488
*
