! pbe def2-sv(p) def2/J RI DEFGRID1 loosescf d4 GCP(DFT/SV(P)) printgap
%output
    printlevel normal
end
* xyz 0 1
C 3.4913034047 1.5114750001 -2.3658512264
C 4.2041761819 1.3913894234 -1.0337695239
O 3.7907096724 0.2219863358 -0.3119953318
P 2.3263967976 0.0736801606 0.3006546987
S 1.6803976415 1.7368905964 1.1153038017
O 2.5190509947 -1.1588782007 1.2681405085
C 2.5813551869 -1.0558161357 2.7104888239
C 1.5449749475 -1.9759029036 3.3234934443
S 1.2405580954 -0.8388829604 -1.273436325
C 0.0743566648 -1.8448682208 -0.3056650307
S -0.986245474 -0.8869169824 0.7995914147
P -2.1602916856 0.1062222349 -0.6831091942
S -2.1245960483 -0.7200335316 -2.4587081476
O -1.6505036781 1.6002551965 -0.7035215893
C -2.1028704341 2.6609837303 0.174457558
C -1.9146358125 2.3404427186 1.641623978
O -3.608406908 0.2460031956 -0.0413010095
C -4.6163575616 -0.7687576733 -0.1982804782
C -4.2605104342 -2.0509590389 0.525733949
H 3.8818608192 2.3638069271 -2.9124901665
H 3.6314340364 0.6077765972 -2.95390802
H 2.4220931836 1.6557354565 -2.2033608329
H 4.0079658276 2.2711518626 -0.411201287
H 5.2792507122 1.259085934 -1.1614376814
H 3.5947521013 -1.3468178045 2.9924411797
H 2.405679428 -0.0142168897 2.9994661422
H 1.7186678009 -3.0006020896 3.0075216513
H 1.6188522358 -1.9183061167 4.4044551456
H 0.5451331766 -1.6735179029 3.01754663
H 0.6243046095 -2.5494464661 0.3122470698
H -0.5373119842 -2.35460702 -1.0505175497
H -1.488942238 3.5109014074 -0.127589492
H -3.1531120504 2.8558457095 -0.0523823714
H -2.2517208517 3.1870962118 2.2312297485
H -2.4938911725 1.4612575767 1.9161442319
H -0.8650759366 2.1568078813 1.8582251741
H -5.5136475828 -0.3071422836 0.2162050488
H -4.7524545109 -0.9563538312 -1.2678234499
H -4.009117609 -1.8454146636 1.5630700213
H -5.1070845909 -2.7288460811 0.4870538245
H -3.4078763165 -2.5260432318 0.0431891
*
