! pbe def2-sv(p) def2/J RI DEFGRID1 loosescf d4 GCP(DFT/SV(P)) printgap
%output
    printlevel normal
end
* xyz 0 1
C 3.1348600669 1.5279567059 -2.0923697359
C 3.9367855814 0.4507279098 -1.393177281
O 3.5241186877 0.2310641789 -0.0313148693
P 2.026008808 0.0332731992 0.4597517149
S 1.0090209062 1.6910855093 0.6929771247
O 2.1986725872 -0.6506470375 1.8666346181
C 3.0201458428 -1.8201103635 2.1128401688
C 4.3664681465 -1.4116816391 2.675040561
S 1.4075791691 -1.5199221919 -0.8777960076
C -0.0923364108 -2.17833911 -0.0629549445
S -0.9734376089 -1.0132629547 0.9998933823
P -1.9809849962 0.0530455029 -0.5620982972
S -0.9911212476 0.6031258712 -2.1501395675
O -2.7498462652 1.186403651 0.2345595096
C -2.2651681134 2.5252827679 0.4446494803
C -3.4589784018 3.4579163265 0.4566952406
O -3.126928395 -0.9512579743 -0.9718794669
C -4.1294414292 -1.4701435303 -0.0627687192
C -5.3884371447 -0.6288531584 -0.1082814761
H 2.0909627785 1.2260146228 -2.1886991093
H 3.170817547 2.4570854822 -1.5278383221
H 3.5407340744 1.6931929161 -3.085171352
H 4.9865772887 0.7352212761 -1.3009092192
H 3.853200856 -0.4989523929 -1.9290991384
H 2.4495001474 -2.4071415271 2.8348621855
H 3.1359109689 -2.3795052112 1.1802796028
H 4.2294125151 -0.828832311 3.5816104032
H 4.9419516847 -2.3032749235 2.9036030763
H 4.908397829 -0.8080984493 1.9517283934
H 0.1974909624 -3.0137782692 0.5699658245
H -0.7472024959 -2.5061692881 -0.8701345162
H -1.7251201281 2.5444519931 1.3945020636
H -1.5621689205 2.7792844665 -0.3551571992
H -3.1110811689 4.4701438561 0.6336386051
H -3.974233184 3.4177283935 -0.499328468
H -4.1479422622 3.1715732716 1.2462444312
H -4.3176180824 -2.4839470764 -0.4208620877
H -3.7100952048 -1.503191043 0.9465920867
H -5.7519350232 -0.5589243765 -1.1298753434
H -6.1478654647 -1.0944729659 0.5121410317
H -5.1874573696 0.3727079405 0.2618591914
*
