! pbe def2-sv(p) def2/J RI DEFGRID1 loosescf d4 GCP(DFT/SV(P)) printgap
%output
    printlevel normal
end
* xyz 0 1
C 3.3438400115 -1.6969563318 -2.7866311285
C 4.1293753232 -1.1230564353 -1.6268173019
O 3.517657722 0.0542332725 -1.0652168312
P 2.0121003527 0.1561268358 -0.5657006846
S 0.6496806123 0.4565545321 -1.9377900557
O 2.0683946261 1.4130396573 0.3800998212
C 3.0625201557 1.6713554848 1.4025257713
C 2.5802292377 1.2166148781 2.7662122268
S 1.8335266606 -1.5981030787 0.6280661725
C 0.2132566366 -1.3116131321 1.3790276208
S -1.1941896136 -1.569117988 0.254157399
P -2.0828612816 0.3675579524 0.3424151121
S -1.1042724573 1.7273730909 1.3502914441
O -3.5686120592 0.0439549787 0.8350623177
C -3.9220928527 -0.7499928055 1.9811910212
C -3.4258223488 -0.1559061307 3.2836673821
O -2.3842751364 0.8532864223 -1.1194373726
C -3.052420523 0.0250172379 -2.1054825358
C -2.7783469358 0.6217033922 -3.4689560139
H 2.3686469844 -2.0423817242 -2.4455737241
H 3.1891602965 -0.9399941931 -3.5520420379
H 3.8879180168 -2.5344187752 -3.211089841
H 5.1126139768 -0.7718787096 -1.9450656575
H 4.2374762266 -1.8628691691 -0.8288623415
H 3.9973718998 1.1844632725 1.1192778876
H 3.185618368 2.7551109583 1.3724827631
H 2.5575560536 0.1315278274 2.8303238408
H 3.2570050422 1.5995359757 3.5233758059
H 1.5824037093 1.6099670983 2.950564562
H 0.158984631 -0.2869452121 1.7602762853
H 0.1352967233 -2.0443750601 2.1781222028
H -5.0127384044 -0.774830818 1.9459924204
H -3.5242725418 -1.7588190172 1.8356527454
H -3.7961937076 -0.7500007066 4.112800548
H -2.3375471631 -0.1476428603 3.306815618
H -3.7753148194 0.8683101336 3.3885109242
H -2.6534539355 -0.9912578771 -2.0333502446
H -4.1182074473 0.0191280788 -1.8676809929
H -3.2601935788 0.0150829903 -4.2284740258
H -3.1594026533 1.6377007681 -3.516018152
H -1.7054948812 0.6433007392 -3.6476347252
*
