! pbe def2-sv(p) def2/J RI DEFGRID1 loosescf d4 GCP(DFT/SV(P)) printgap
%output
    printlevel normal
end
* xyz 0 1
C 1.2202696663 -0.8295845621 -2.4000988824
C 2.3025478056 -1.4798995037 -1.5645775447
O 2.1641009632 -1.1770930252 -0.1690791111
P 2.4545344504 0.2771444144 0.4213782343
S 3.8061772652 1.3172238833 -0.5400811842
O 2.775024396 -0.0551100165 1.9420873294
C 4.1220823155 -0.3005550991 2.3960991567
C 4.680024969 -1.5957727584 1.8447187879
S 0.5693512679 1.1767929176 0.7141658045
C -0.2608493179 -0.1814686812 1.6052723015
S -1.1343813836 -1.3538253417 0.5339110147
P -2.5002663097 -0.0260367411 -0.3911174588
S -1.9467460095 1.0515822007 -1.9397349615
O -3.0029658388 0.7709066648 0.8797954286
C -3.4374327801 2.1475067818 0.8452579073
C -2.5910582029 2.9671365108 1.7990068985
O -3.7622986033 -0.948178574 -0.6956212995
C -3.9107767283 -1.6680342698 -1.9297809999
C -2.9666857775 -2.8511217301 -2.0018134517
H 1.3412683276 -1.1116512802 -3.4407611816
H 0.2345899709 -1.139246402 -2.0605789268
H 1.2849807497 0.2565581509 -2.3230719497
H 3.2892024349 -1.1411008492 -1.8971512838
H 2.2431561514 -2.5680910471 -1.6064726392
H 4.746315383 0.5468279677 2.0960517875
H 4.0285967552 -0.3274441817 3.4825241409
H 4.808070714 -1.5139016262 0.7662122485
H 5.6461169755 -1.7919708139 2.2991823029
H 4.0048789764 -2.4202502661 2.0583205154
H -0.9757137379 0.2864592222 2.2767245132
H 0.4797420852 -0.7573258925 2.1527228403
H -3.3485257481 2.5241557387 -0.1790523062
H -4.4873683982 2.1418467962 1.1430638659
H -2.9449626296 3.9928726412 1.7947588933
H -2.6653995095 2.567986345 2.806722427
H -1.5487992774 2.950350007 1.4841231857
H -4.9548066032 -1.9837601456 -1.9298937971
H -3.7306455967 -0.9754814746 -2.7590479668
H -3.0999179981 -3.4936120526 -1.1355188419
H -3.162870666 -3.4164467408 -2.9070768574
H -1.9350916206 -2.5007986529 -2.0196036109
*
