! r2scan-3c def2/J RI DEFGRID2 scfconv6 printgap
%output
    printlevel normal
end
* xyz 0 1
C 4.7110738882 -2.1607853675 -0.1222309601
C 4.5869452212 -0.6873380069 0.2091691055
O 3.8796838303 -0.0010602871 -0.8586377156
P 2.4478340337 0.6280533449 -0.68295198
S 1.8091512277 1.3837387576 -2.3673899507
O 2.7124500985 1.6509580226 0.5070488247
C 1.7578424813 2.6219902306 0.9732214319
C 1.078323009 2.147466714 2.2427316361
S 1.2652506713 -0.9187077015 0.1889988469
C 0.255080922 -1.3565531424 -1.2635458344
S -1.3884085525 -1.911429263 -0.779067284
P -2.0168773272 -0.1356982312 0.2302159814
S -1.4340428838 1.558345401 -0.5580388976
O -1.563195682 -0.2809376441 1.7278904164
C -1.9067322938 -1.4167622635 2.5643121533
C -3.1093549971 -1.096048472 3.4269296248
O -3.5879651365 -0.3503585141 0.3120751924
C -4.4193440832 -0.2478709218 -0.8619463552
C -5.8622705802 -0.1902610891 -0.40351262
H 5.1633339142 -2.2825128796 -1.1024243937
H 5.3364226779 -2.6404985214 0.6238858638
H 3.7322713047 -2.6338115926 -0.1230713733
H 5.5638421384 -0.2043973421 0.2572414446
H 4.0542910619 -0.5331721627 1.1500757438
H 2.3475194917 3.5226958209 1.1543324969
H 1.0273717727 2.8224951302 0.1827270353
H 1.8228535606 1.869758674 2.9833602587
H 0.4621804045 2.9519292267 2.6315308288
H 0.4394031338 1.290618467 2.03922206
H 0.7146722414 -2.1871178672 -1.7937372675
H 0.1788417268 -0.4722087073 -1.9033692947
H -2.0941756061 -2.2834281016 1.9248028604
H -1.013258848 -1.5892509151 3.1667631544
H -2.9139227051 -0.2100168415 4.0244329925
H -3.9808344996 -0.9132434029 2.804191859
H -3.3076311524 -1.9363455667 4.0848323193
H -4.1350709035 0.6548750791 -1.4126461615
H -4.2336290177 -1.1231040595 -1.4905320726
H -6.111268956 -1.0886523024 0.1536044578
H -6.017453851 0.6763300662 0.2329633446
H -6.5082815742 -0.116117948 -1.2720733681
*
