! wb97x-v def2-tzvp def2/J RIJCOSX DEFGRID2 scfconv7 GCP(DFT/TZ) printgap
%output
    printlevel normal
end
* xyz 0 1
C -4.182485054792282 -0.00022113365109918177 0.0152479682497849
C -2.681160944831526 0.00011557495686158571 -0.010379866917862399
C -1.9630033845340533 1.199277605484026 -0.009406579004104841
C -0.5705640122462189 1.2122810723252893 -0.0021109845681122346
C 0.10630143423947859 0.00010648842386684292 0.0021204898369488225
C -0.5706076856114479 -1.2121298076308824 -0.0021023688018111495
C -1.9629600271483794 -1.1991173110217548 -0.009423647878178955
Br 2.028821886302317 4.6375034085305984e-05 0.006385736098232981
H -4.586655682763474 0.8928225608608341 -0.46862491776761056
H -4.586451593905537 -0.8847331164585843 -0.48433671691882707
H -4.550529948062251 -0.009707147637521174 1.0481279680579678
H -2.497394174085603 2.1451300328614757 -0.015590395461719237
H -0.03087834516452114 2.152354394644569 -0.003576035068442942
H -0.030898434890618783 -2.1521906682859595 -0.0035589433363951693
H -2.4973895270828383 -2.144959743647089 -0.01559097964750951
*
