! pbe def2-sv(p) def2/J RI DEFGRID1 loosescf d4 GCP(DFT/SV(P)) printgap
%output
    printlevel normal
end
* xyz 0 1
C 2.2125838813 1.9802534379 -2.7992480983
C 2.4710822776 0.7888550391 -1.9024636165
O 1.9184548214 1.0961301381 -0.5960338674
P 2.0347555678 0.1322619641 0.6446393049
S 1.3792395423 1.042506912 2.2478345301
O 3.5824555039 -0.2330009077 0.586142691
C 4.2079728216 -1.3386661311 1.263644321
C 3.951283355 -1.3350991701 2.7559160967
S 1.096013043 -1.7270776365 0.1615129003
C -0.2502274881 -1.7207693924 1.379557854
S -1.9147478576 -1.7543342053 0.6608362896
P -1.9758835415 0.0432297669 -0.4399122499
S -0.9600276623 0.2241253725 -2.1094157138
O -1.6189426256 1.0682993 0.7135701123
C -1.2474717 2.4340779803 0.4444762534
C -2.3862700028 3.2254438276 -0.1597486688
O -3.5391644732 0.2615229962 -0.6330636304
C -4.2490990224 -0.2362268473 -1.7789629145
C -4.3404981974 -1.748388728 -1.7722387421
H 2.632324214 2.8793521525 -2.357160978
H 2.6722078057 1.8009805263 -3.7655018997
H 1.1425495482 2.1146458364 -2.9352251802
H 3.5383905878 0.596108175 -1.7838436241
H 1.9717712417 -0.1066830212 -2.2826662937
H 3.8465351175 -2.2652939101 0.8091749238
H 5.2682340673 -1.2056347136 1.0416293476
H 4.2488922514 -0.3836179436 3.190205472
H 2.8917763174 -1.4863809972 2.9574802878
H 4.518238509 -2.1356714878 3.219870447
H -0.1378220753 -0.8391376073 2.0181449174
H -0.1802785589 -2.6398762891 1.9566975773
H -0.9519150003 2.8177051242 1.4226793715
H -0.3755139556 2.4310844469 -0.2189730919
H -2.0947943824 4.2682738978 -0.2360627698
H -2.6148748798 2.8466477032 -1.1552994792
H -3.2724852406 3.1395356935 0.4635652532
H -5.2323283195 0.2295215988 -1.7020757584
H -3.7391240333 0.1142066376 -2.6826923494
H -4.7628931888 -2.0972404992 -0.8333329617
H -4.9663355951 -2.0762578489 -2.5960023308
H -3.3466586899 -2.1802804457 -1.8886042733
*
