  10
        -10.75865141
 C         -1.2748879550       -0.2653583124        0.0000059770
 C          0.0113393918        0.5659131794       -0.0000289556
 N          1.2415174020       -0.2127554166       -0.0000037980
 H         -2.1436686209        0.3870097263        0.0000895852
 H         -1.3179747114       -0.8997440507       -0.8837342054
 H         -1.3178296257       -0.8994894465        0.8839313871
 H          0.0314855088        1.2089855760        0.8840812082
 H          0.0313984224        1.2086735185       -0.8842771930
 H          1.2603754824       -0.8150104042        0.8167721528
 H          1.2602335827       -0.8153457348       -0.8165363414
  10
        -10.75670603
 C         -1.2548007656       -0.3047745402        0.0179024332
 C         -0.0088963190        0.5720833546        0.0178659292
 N          1.1909923376       -0.2564964930        0.0178930385
 H         -2.1466656611        0.3117265824        0.0852926977
 H         -1.3044431352       -0.8927776197       -0.8958572901
 H         -1.2263760358       -0.9839187166        0.8647783973
 H          0.0130937040        1.1772066029        0.9287492512
 H         -0.0531919264        1.2630797780       -0.8426081340
 H          1.2085387060       -0.8270948899       -0.8211930432
 H          2.0169484521        0.3308627266        0.0059702439
