! r2scan-3c def2/J RI DEFGRID2 scfconv6 printgap
%output
    printlevel normal
end
* xyz 0 1
C 4.0614439219 -0.203195989 -2.3283013962
C 3.6867357264 -1.6737455457 -2.2393777854
O 2.4760072946 -1.8321501165 -1.4773393356
C 2.5664359059 -2.1530251113 -0.1980713819
O 3.5943101978 -2.4298984223 0.3757176234
C 1.1943360424 -2.2166280806 0.4526680848
C 0.3983715456 -0.9575035385 0.135406951
H 0.2553670428 -0.8643573134 -0.9497313548
C 1.1444226233 0.2886089413 0.5756657844
O 2.3500326384 0.3755351721 0.5368321198
O 0.3275580386 1.2496817992 0.950032594
C 0.8828635833 2.5178276042 1.3545278731
C 1.1843492718 2.519046746 2.8433817499
S -1.2597893304 -1.0326993366 0.8882939989
P -2.1376860971 0.6018407557 -0.161077527
S -1.2882829143 1.121768012 -1.8472549168
O -3.6542554313 0.1080480685 -0.3176522114
C -3.9987098085 -0.9734875417 -1.1896359741
O -2.3478841795 1.8079479769 0.835242516
C -3.0122744174 1.6441451263 2.1039638003
H 3.267446273 0.3571522534 -2.8156821722
H 4.2059784491 0.1996770427 -1.3279110193
H 4.9799982235 -0.0957170242 -2.8952362903
H 4.4793796344 -2.2511230579 -1.7552990905
H 3.4584617069 -2.0868888193 -3.2227893864
H 1.3303010566 -2.3343700568 1.5278339857
H 0.6667831173 -3.0874604285 0.060964897
H 1.7874816708 2.6983514405 0.7677396079
H 0.1113779507 3.2438822166 1.0949585169
H 0.2888250711 2.2787737778 3.4098234879
H 1.9562650457 1.7864976474 3.0689633496
H 1.5377862866 3.5030859069 3.1325085714
H -3.6561406943 -1.9163537637 -0.7636297862
H -3.5493280409 -0.8218301663 -2.172351474
H -5.0831189216 -0.9572533036 -1.2625663482
H -2.5244921605 0.8581261588 2.6806801338
H -4.0590431099 1.3933567282 1.9447062359
H -2.917122268 2.6057266766 2.6016609737
*
