  9
        -13.81684064
 C          1.3103048566       -0.7077462564        0.0002769684
 C          1.3104147690        0.7076494095       -0.0000379881
 C          0.0579099957        1.2270935994       -0.0005094997
 S         -1.1483207015        0.0000463586        0.0002029236
 C          0.0577851421       -1.2271131414       -0.0004037379
 H          2.2037999315       -1.3048122511        0.0008793966
 H          2.2041145720        1.3046647313        0.0010392832
 H         -0.2422938343        2.2552803419        0.0007156434
 H         -0.2424692956       -2.2552206866       -0.0010552396
