! r2scan-3c def2/J RI DEFGRID2 scfconv6 printgap
%output
    printlevel normal
end
* xyz 0 1
C 3.8871541057 -1.2937974564 -2.5296686127
C 4.1719278798 -1.6056538757 -1.0745834911
O 2.9719801994 -1.6444250332 -0.2823597298
P 2.1130201812 -0.3446417963 0.0320315023
S 3.1525884961 1.2817438573 0.3921568039
O 1.1875601455 -0.8676362334 1.205951375
C 1.479581693 -0.6102889998 2.5919551516
C 2.6715879326 -1.4138171211 3.0680577902
S 0.7078592095 -0.2622254584 -1.5408836993
C 0.1633968609 1.4422245017 -1.255441402
S -0.6209655355 1.6908886432 0.3640387063
P -2.2515742518 0.3913739345 0.058797573
S -2.9828634527 0.2341616903 -1.7563054039
O -3.3261708962 0.8269529624 1.1502394441
C -4.3516496385 1.7985851793 0.8786880132
C -3.783901103 3.1925452244 0.7059740082
O -1.6765902087 -0.9240198523 0.7262871375
C -2.2524292075 -2.2304584328 0.4989662175
C -1.4017029508 -3.0144872752 -0.4806791742
H 3.1322517375 -1.9711700798 -2.9210886489
H 3.5241130479 -0.271674191 -2.6284254458
H 4.8011878401 -1.3996599774 -3.1051915536
H 4.8442762521 -0.8555912809 -0.6458042247
H 4.5986529698 -2.6020036268 -0.9516867919
H 1.6587406264 0.4630697986 2.7163053694
H 0.561364705 -0.8906906343 3.1102727372
H 2.8070904902 -1.2612630329 4.1341759503
H 2.5173529635 -2.4708723872 2.8682137866
H 3.5691326683 -1.0839567147 2.5458664679
H -0.548501578 1.6712366391 -2.0474207581
H 1.0210764916 2.1135040195 -1.2824478773
H -4.8901267726 1.488288133 -0.0225976691
H -5.0094385629 1.7345512436 1.7464138696
H -3.1592189162 3.4547584731 1.5562271822
H -3.1799030246 3.2390184841 -0.199305405
H -4.5986199888 3.9045955044 0.6224148907
H -2.2709440584 -2.7038583346 1.4819519296
H -3.2744784717 -2.1160949546 0.1263352262
H -1.4319203175 -2.5473156784 -1.4630576522
H -0.3692747 -3.0370521755 -0.13967928
H -1.7813725922 -4.0283647886 -0.5554783628
*
