! pbe def2-sv(p) def2/J RI DEFGRID1 loosescf d4 GCP(DFT/SV(P)) printgap
%output
    printlevel normal
end
* xyz 0 1
C 4.6063880356 -0.0458727703 -1.7861596608
C 4.3916034951 1.044488876 -0.7571837164
O 3.469998507 0.6508881548 0.2751700865
P 1.9307225914 0.3790917608 -0.0052843453
S 1.0591253191 1.6056882307 -1.2636346391
O 1.3073123412 0.4949173192 1.4406310699
C 1.9537165878 0.113403347 2.6835849284
C 2.1199680989 -1.3858506871 2.8180290568
S 1.8632200249 -1.6719091341 -0.5693977598
C 0.1155122648 -1.756656012 -1.0054494467
S -0.9879778058 -1.497686383 0.4212483889
P -2.1517420558 0.1381778406 -0.2823586867
S -2.2021008559 0.409651556 -2.2172220043
O -1.6822042923 1.4037595643 0.5341468553
C -1.7704562749 1.462615288 1.9808487823
C -1.0677762389 2.7257948041 2.4305027371
O -3.571438094 -0.1350268396 0.3909948109
C -4.5964153467 -0.9214321081 -0.2428257852
C -4.2020700615 -2.3756761915 -0.3990371748
H 4.8657640209 -0.9824698882 -1.2993174472
H 3.6983588387 -0.1919457546 -2.3691631309
H 5.4083187066 0.2480440062 -2.4558073098
H 4.0077892725 1.9519647605 -1.2333553578
H 5.3087785483 1.2696419598 -0.2108693092
H 2.9165609959 0.6236456675 2.7382184768
H 1.2781069776 0.510110613 3.4434114778
H 2.8589910108 -1.754442736 2.1107991289
H 2.4528053046 -1.6113759516 3.8264120339
H 1.1742405387 -1.8906506223 2.6326321601
H -0.0498628118 -2.7616995837 -1.3850604459
H -0.1216508424 -1.0047331935 -1.7636451438
H -2.8272224265 1.4669370299 2.2550020767
H -1.2931814486 0.5661895245 2.3878988006
H -0.0316944596 2.7088344191 2.1018370298
H -1.5521073429 3.5953979871 1.9952551108
H -1.1071115428 2.7923757652 3.5129549042
H -5.4549770604 -0.8051645064 0.4201751244
H -4.8148559646 -0.4765501705 -1.2184079468
H -3.8664399015 -2.7832615256 0.5511526499
H -5.0592853143 -2.939518303 -0.7524857776
H -3.3983784602 -2.4650051983 -1.1283391548
*
