! pbe def2-sv(p) def2/J RI DEFGRID1 loosescf d4 GCP(DFT/SV(P)) printgap
%output
    printlevel normal
end
* xyz 0 1
C 1.3851419234 -3.7241887285 -2.0898109364
C 2.620919609 -2.8443578302 -2.1909185655
O 2.4325189597 -1.6321644844 -1.4381427023
C 2.854796662 -1.5920044755 -0.1888823769
O 3.4644151888 -2.4801349301 0.3617244819
C 2.5118271117 -0.2727046861 0.4804094553
C 1.090390851 0.1652419045 0.1518264334
H 0.9653024064 0.2577300293 -0.933208296
C 0.7168955849 1.4974599632 0.7676860044
O -0.3728739075 1.6886069696 1.2734432406
O 1.6654969009 2.3826032045 0.6671977981
C 1.3905356963 3.7362537173 1.0941164659
C 0.7382660586 4.5216794205 -0.0314141702
S -0.1232755655 -1.0778655272 0.7376598185
P -1.90971168 -0.0645719654 0.1986425796
S -1.8379567977 1.1914546493 -1.3136156278
O -2.8319698834 -1.3354243483 -0.1310136642
C -2.5696537509 -2.1668336811 -1.2629343467
O -2.7460544486 0.3258716854 1.4867895969
C -3.0749702285 1.6543219598 1.8976633551
H 1.2113107026 -4.0026339443 -1.0525133247
H 0.5149362411 -3.1903597759 -2.4628891215
H 1.5324919333 -4.6230408207 -2.6789932823
H 2.7912177346 -2.5148008625 -3.216235715
H 3.5023274181 -3.3627883993 -1.8036823302
H 3.2048258938 0.4903552907 0.1199770171
H 2.6447652299 -0.3991064193 1.5549571204
H 0.7436596705 3.7019231439 1.9742004152
H 2.3687074237 4.1412859804 1.3517165949
H 1.3888240908 4.5443180187 -0.9009575329
H -0.2057071359 4.0601580433 -0.3163501147
H 0.5476678833 5.5365378574 0.3008713705
H -3.4552185705 -2.7854628061 -1.3841868419
H -1.6932762725 -2.7887810331 -1.076916672
H -2.4119227472 -1.552491498 -2.1521023884
H -2.4089955518 1.9532128196 2.7046754817
H -4.1075121337 1.6168774078 2.2384414358
H -2.9758460156 2.3488310912 1.0618862032
*
