! r2scan-3c def2/J RI DEFGRID2 scfconv6 printgap
%output
    printlevel normal
end
* xyz 0 1
C 0.605474829 1.6981171979 -0.0077728819
C 1.4026998207 0.4140806919 -0.2591236493
H 1.6120610917 0.3308423404 -1.3401872523
C 0.5555346196 -0.7909864927 0.1742208519
H 0.3986750246 -0.7432830901 1.2576070681
C -0.8055172156 -0.7454348735 -0.5325557307
H -0.6568931306 -0.8560736153 -1.6189975367
C -1.4718292379 0.6239528891 -0.2791020611
H -2.3694969833 0.715567924 -0.9102114912
O -0.6437221708 1.6699477009 -0.6831375947
O -1.8075441721 0.7661348803 1.0711164323
O -1.6810945522 -1.7330145487 -0.0507766173
O 1.2180846255 -2.0130950544 -0.0554226934
O 2.6074682222 0.4892237192 0.4600226908
H 1.1362852357 2.5623634093 -0.4043151969
H 0.4545355744 1.824022507 1.0695041663
H -2.3084262067 -0.0219626747 1.3368845779
H -1.1906391507 -2.5641128036 0.0533507345
H 1.411972136 -2.1090853445 -1.0003671943
H 2.9696512749 -0.4058544186 0.5581796106
*
