! pbe def2-sv(p) def2/J RI DEFGRID1 loosescf d4 GCP(DFT/SV(P)) printgap
%output
    printlevel normal
end
* xyz 0 1
C 5.1474965719 -0.0721462735 -2.4463050292
C 3.7232420423 -0.5120825746 -2.1730270659
O 3.4810849127 -0.3821119175 -0.757725799
P 2.0161282244 -0.2733764865 -0.1560848015
S 0.8840085307 1.0186296121 -1.1155739339
O 2.295035806 0.0094741387 1.3729498682
C 2.4547836299 1.339316291 1.9054818867
C 3.7033050739 2.0115639125 1.3776726594
S 1.4720932399 -2.3073099685 -0.0804153677
C -0.2290901585 -2.239586396 0.552876686
S -1.4187321227 -1.5588920593 -0.6430128853
P -2.0486712639 0.1423723186 0.4419033602
S -0.9957867275 0.70568855 1.9898276889
O -3.501835171 -0.4132653452 0.833903211
C -4.2478138134 0.1027452509 1.9513195758
C -4.7733977442 1.4996935585 1.6872614128
O -2.2850738482 1.3267148663 -0.5787272134
C -3.1683692977 1.2511325781 -1.7241477649
C -2.4196558598 0.8293246351 -2.972354718
H 5.3612138689 -0.1975879435 -3.5025806948
H 5.2773914547 0.9720112804 -2.1759318041
H 5.8379386967 -0.6752143726 -1.8640559412
H 3.5690831897 -1.5586254825 -2.4479194734
H 2.9989898392 0.1109038614 -2.7089955571
H 1.560606759 1.9217883243 1.6606141961
H 2.4953915492 1.1809548269 2.9839918581
H 4.5695906248 1.3781002939 1.5488577178
H 3.6010141947 2.1904120217 0.3079978717
H 3.8397637491 2.9619322856 1.8841201128
H -0.2536032652 -1.6362865447 1.4634871625
H -0.5030744276 -3.2724620457 0.7500422447
H -5.0562857727 -0.6176961782 2.0825525838
H -3.5982429866 0.0981980964 2.8324361582
H -3.9393425548 2.1865538344 1.5433430266
H -5.398574087 1.5108481709 0.7981339126
H -5.3570588953 1.8301206178 2.540781287
H -3.9854224892 0.5609883459 -1.4980155532
H -3.551231006 2.2686889504 -1.8214062108
H -3.060565156 0.9723770794 -3.8364577436
H -1.5215373 1.4325558515 -3.0831546296
H -2.1267073932 -0.2164542771 -2.9140347188
*
