! pbe def2-sv(p) def2/J RI DEFGRID1 loosescf d4 GCP(DFT/SV(P)) printgap
%output
    printlevel normal
end
* xyz 0 1
C 1.6760668366 0.8500715956 3.4478523789
C 0.9894613463 1.1327878858 2.1254708217
O 1.8513351743 0.7936713407 1.0270862829
P 1.8051739854 -0.5871032806 0.233311807
S 0.9473782634 -2.0735374276 1.1862903271
O 3.3286086747 -0.8188225225 -0.1463715266
C 4.2967982954 -1.3094974414 0.8028170679
C 5.0498789983 -0.1698033076 1.4591893686
S 1.1931104955 -0.1664542827 -1.7415872342
C -0.2108536985 -1.3170339016 -1.8929153333
S -1.800294804 -0.5177233688 -2.2702943464
P -2.1260114495 0.5610897508 -0.4711812837
S -3.8858406147 1.4013144192 -0.3211754244
O -0.8843403753 1.5500526319 -0.3566580435
C -0.782173786 2.6593724568 -1.2750217087
C 0.3218028588 3.5735584442 -0.7857050901
O -1.6917251076 -0.3925782767 0.7196143162
C -2.6567314596 -1.2099427417 1.409137882
C -3.0941804064 -2.3954369391 0.5733314018
H 1.894646665 -0.2127012355 3.5355657322
H 2.6022364548 1.4134407981 3.5230128997
H 1.0163820218 1.1407627452 4.2592656703
H 0.7757349294 2.1953261076 2.002771511
H 0.0588266545 0.5672743897 2.0457912942
H 3.7823582414 -1.9308210534 1.5440024206
H 4.9667195644 -1.9364331691 0.2111225392
H 5.8040729452 -0.5779348361 2.1248560272
H 5.5313404638 0.440229132 0.6999982664
H 4.3695253323 0.4563613969 2.0299423597
H -0.2914434829 -1.8902947968 -0.9662600569
H -0.0228405777 -1.9683699723 -2.742365597
H -0.55320768 2.2645759692 -2.2703447483
H -1.7487210083 3.1732615937 -1.3064374578
H 0.4525219323 4.3820610904 -1.4972554348
H 0.0645528811 3.9882732057 0.1848301954
H 1.2515802024 3.0160224778 -0.7021942202
H -2.1330224493 -1.5312747314 2.3111067161
H -3.5137933047 -0.5824843477 1.673102797
H -3.792746167 -2.9958154364 1.1471414333
H -3.5867670419 -2.0508658487 -0.3355167815
H -2.2358597243 -3.0083927083 0.3080750937
*
