! pbe def2-sv(p) def2/J RI DEFGRID1 loosescf d4 GCP(DFT/SV(P)) printgap
%output
    printlevel normal
end
* xyz 0 1
C 2.5695155674 -2.0900332101 -3.1534847739
C 1.8276792647 -1.3844596546 -2.0370979714
O 2.8100085728 -0.8374042098 -1.1349783421
P 2.408342628 0.128803699 0.0637518429
S 1.3066343741 1.6654424671 -0.437906309
O 3.8156702932 0.5615264175 0.6072464752
C 4.827277879 -0.3836709988 1.0539764451
C 4.980579589 -0.3066403586 2.5593488925
S 1.613035195 -1.2037471071 1.5429363413
C -0.0747576027 -0.5926721961 1.6480995862
S -1.0276141594 -0.9840323244 0.1446588314
P -2.4789328258 0.5697277397 0.3025148007
S -1.9597422579 2.1330349603 1.3582786907
O -3.7535405789 -0.1095876674 0.9290352838
C -4.3942065989 -1.2815955753 0.3620680117
C -5.5652516474 -0.8848474835 -0.5127810645
O -2.929024408 0.8261756365 -1.1972495178
C -2.0329489168 1.2999205534 -2.2239058033
C -1.7606107979 0.1843039209 -3.2147638978
H 3.2108315735 -1.3864740487 -3.676442626
H 3.1816483196 -2.8894417243 -2.7468136198
H 1.8495975948 -2.5068920531 -3.8497487545
H 1.1878837545 -2.0753123038 -1.4788048491
H 1.215561654 -0.5604736869 -2.4165378637
H 4.5469997633 -1.3877087661 0.731550608
H 5.7403503284 -0.0730825187 0.544127079
H 5.80208364 -0.9469999665 2.8642746873
H 5.1923611752 0.7158587725 2.8596857014
H 4.0698845669 -0.6373573092 3.0526349885
H -0.0786995047 0.4934693962 1.775258233
H -0.5254483862 -1.0920609653 2.5025765361
H -3.6507815012 -1.8527470526 -0.201448028
H -4.7229706568 -1.8560872627 1.229775722
H -5.2224095432 -0.2928753551 -1.3569060399
H -6.0560195453 -1.7819756004 -0.8769665759
H -6.2744830221 -0.2945416085 0.0608501409
H -2.5486811391 2.1375827069 -2.6970520021
H -1.1093086774 1.6665697965 -1.7655958691
H -1.2935281008 -0.6595210777 -2.7114937462
H -2.6905372061 -0.1461587729 -3.6681805862
H -1.0949401838 0.5536779527 -3.9880619297
*
