! pbe def2-sv(p) def2/J RI DEFGRID1 loosescf d4 GCP(DFT/SV(P)) printgap
%output
    printlevel normal
end
* xyz 0 1
C 1.5586115696 -3.0842489444 0.3104107012
C 1.8724512972 -1.9865143967 1.3068148447
O 2.9450984402 -1.1352726995 0.8700168866
P 2.852072443 -0.0572570248 -0.2962264189
S 2.8168012205 -0.743213078 -2.1317110678
O 4.1636341286 0.7795486881 -0.0739418082
C 4.4093923292 1.7629798929 0.9625875088
C 4.1128422418 1.2549124515 2.3566029108
S 1.2319028071 1.2312297463 0.2423828451
C 0.0741368539 0.7827958788 -1.071114171
S -0.9821186463 -0.6230818221 -0.647262187
P -2.842458005 0.3772209446 -0.2944349778
S -2.8279758259 2.3030763665 -0.6558768436
O -3.3223940145 -0.0370637586 1.1656342418
C -2.9615570337 0.7019953085 2.3448075436
C -1.5179818368 0.4709357281 2.7421775311
O -3.8848943474 -0.3792158479 -1.2046491583
C -4.5002202288 -1.6535698416 -0.8939514734
C -3.4852019375 -2.7645549518 -0.7323164229
H 2.4612732443 -3.6369344178 0.0633482525
H 0.8276645217 -3.7609202282 0.7405220342
H 1.1490975417 -2.6611599658 -0.6050778908
H 2.239434643 -2.3993372946 2.2481980439
H 0.9877330543 -1.3699190814 1.4921066555
H 5.4681353702 1.9940095895 0.8348958489
H 3.8078707962 2.6465370277 0.7344716139
H 4.4330971286 2.0015430899 3.0769050814
H 3.0447994531 1.0853150913 2.4772062861
H 4.6457229903 0.3257554207 2.5400226396
H 0.6500643435 0.5067807617 -1.956506779
H -0.5587368005 1.6536468457 -1.2561940074
H -3.1485542677 1.7648218701 2.1615596631
H -3.6505311746 0.3304314829 3.1050015431
H -0.8492372108 0.9214386357 2.0099330804
H -1.3349513419 0.933565051 3.7065363429
H -1.3128574148 -0.5944508162 2.8098080295
H -5.0941046036 -1.5313027414 0.0137597862
H -5.1564925604 -1.8267422236 -1.7481165699
H -4.0081174519 -3.7014001724 -0.5670979625
H -2.8680645375 -2.851353376 -1.6229698193
H -2.8401515231 -2.5621789037 0.1208747953
*
