! pbe def2-sv(p) def2/J RI DEFGRID1 loosescf d4 GCP(DFT/SV(P)) printgap
%output
    printlevel normal
end
* xyz 0 1
C 4.6432482421 -0.8149979648 -1.7148677265
C 4.1637899618 -1.2959837208 -0.3621983647
O 3.5840613671 -0.2419438624 0.4326878594
P 2.4086533154 0.716114853 -0.0385290299
S 2.8144647958 2.2038794258 -1.2403893489
O 1.8757760958 1.2912585179 1.3277867377
C 1.5581234001 0.4717012446 2.4773998469
C 2.7014478742 0.4845759388 3.4699609647
S 0.9445874874 -0.6509439166 -0.7571800528
C -0.0397610094 0.5998144263 -1.6496669655
S -1.7022084397 0.0014310659 -2.0032465589
P -2.3413363044 -0.0744483659 0.0155457681
S -1.6857425625 1.3047490541 1.2339917771
O -1.9914447619 -1.522975016 0.5650422423
C -2.4298983969 -2.7271546615 -0.1140058156
C -1.2503479789 -3.4383027514 -0.745114641
O -3.9050856714 -0.0534554619 -0.2987147233
C -4.8691961102 0.3752714235 0.6830977107
C -5.0164194368 -0.6361058852 1.8023496522
H 5.3339832561 0.0169039252 -1.5995665775
H 5.1418150962 -1.6291046999 -2.2309194531
H 3.7993144489 -0.4771307436 -2.3146223091
H 4.9929325239 -1.6522783305 0.2515579412
H 3.4161647914 -2.0858162951 -0.4752022189
H 0.6554596452 0.9234372697 2.8948601389
H 1.3304456053 -0.5435184931 2.1390755507
H 3.5912325732 0.0468772154 3.0250559209
H 2.9231907279 1.5070132215 3.7632413293
H 2.4160317339 -0.087020283 4.3473775201
H 0.437028514 0.8194904972 -2.6026558864
H -0.0988127536 1.4979550917 -1.0309978757
H -2.8872911912 -3.3382414373 0.6660849315
H -3.1797584266 -2.4608818546 -0.8643928752
H -0.8069257305 -2.8268933291 -1.5274923828
H -0.4915604007 -3.6398484578 0.0051036355
H -1.5914289697 -4.3745820676 -1.174953123
H -4.5549410168 1.3459790102 1.0793380716
H -5.7923725781 0.4900381812 0.1134862961
H -5.3002939715 -1.6058177066 1.4018486503
H -4.0717112073 -0.7329904461 2.3371671341
H -5.7800658268 -0.2962169051 2.4949597309
*
