! pbe def2-sv(p) def2/J RI DEFGRID1 loosescf d4 GCP(DFT/SV(P)) printgap
%output
    printlevel normal
end
* xyz 0 1
C 2.4280996664 -1.7218798758 -2.8463945199
C 3.4517635874 -0.8972108285 -2.0929892231
O 3.2611518241 -0.9803793122 -0.6715082721
P 1.9621851917 -0.4096730892 0.0500592613
S 1.3971014689 1.3205670333 -0.7133683722
O 2.4001379581 -0.3928753356 1.5720007488
C 2.9377821482 0.778764642 2.2151767678
C 4.3254647065 1.1068939195 1.7060541253
S 0.7395405689 -2.1261738953 0.0953674615
C -0.4681877637 -1.714582759 1.4073017929
S -0.7208134004 0.056290434 1.6878988561
P -1.9531366241 0.5362443402 0.0421117824
S -2.2927741387 2.4446189239 -0.235415314
O -3.2884116625 -0.3222379157 0.2427076271
C -4.438867273 0.2072861117 0.9177074229
C -4.2059016003 0.3371216611 2.4094722958
O -1.2435921648 -0.3254439606 -1.0809693372
C -1.8110210769 -0.5611593126 -2.3892191519
C -1.5053285686 0.5798557475 -3.3380536127
H 2.6482740028 -1.6943015109 -3.9086846299
H 2.4392029361 -2.7511658108 -2.4965059006
H 1.4341987549 -1.3062011357 -2.6784067466
H 3.3893324416 0.1554223741 -2.3888509024
H 4.466076807 -1.2677072382 -2.2457190067
H 2.2516003431 1.615438386 2.0448767884
H 2.9422044451 0.5166451636 3.2738979794
H 4.9738324872 0.2399697796 1.801052469
H 4.2740881683 1.3952107968 0.6566372094
H 4.7344571087 1.932923013 2.2792590371
H -0.0979868731 -2.1083579001 2.3510893297
H -1.4092003476 -2.1808310922 1.1225293517
H -4.6760365335 1.1830564492 0.4816441814
H -5.2319403009 -0.5068214955 0.6917560468
H -3.9044373155 -0.6166913314 2.8343015074
H -3.4213112662 1.0701219317 2.59673526
H -5.1206156316 0.6719466604 2.8876628319
H -1.3341173499 -1.4896850667 -2.7114459928
H -2.8874635883 -0.7152628897 -2.2852250027
H -1.8355381712 0.3166823033 -4.3377067599
H -2.014656727 1.4870083151 -3.0184842375
H -0.4361067112 0.7801016401 -3.3504547403
*
