! pbe def2-sv(p) def2/J RI DEFGRID1 loosescf d4 GCP(DFT/SV(P)) printgap
%output
    printlevel normal
end
* xyz 0 1
C 4.388508276 0.9688113733 -1.3780932641
C 4.1972580617 -0.3706793428 -2.0700959249
O 2.8662901501 -0.8821830316 -1.8632640427
C 2.6097487185 -1.5462726167 -0.7552326042
O 3.4194538587 -1.7919719815 0.109533342
C 1.156753689 -1.9908508271 -0.7080826598
C 0.2494455272 -0.7648558499 -0.5868226304
H 0.4079886415 -0.0873771585 -1.428955899
C 0.5406165778 -0.0434480191 0.7161435061
O -0.1612335366 -0.1491938451 1.700640913
O 1.6467531428 0.6491131613 0.6383480174
C 2.0978883257 1.3381168731 1.823154046
C 2.7888534078 0.3823395834 2.7821779821
S -1.4960134182 -1.2915011367 -0.5623047221
P -2.341630391 0.5395246875 0.0933828053
S -1.3018633395 2.153383148 -0.2884634119
O -3.7673317962 0.5014575979 -0.6384575413
C -3.8782992331 0.6247902258 -2.0609286507
O -2.8179072765 0.4475526561 1.5933853749
C -3.4858551999 -0.7112701089 2.1311940877
H 3.6170565502 1.6671376109 -1.691732089
H 4.3286374131 0.8425348517 -0.3003465937
H 5.3634910852 1.369539955 -1.6349682563
H 4.9141403808 -1.1057485276 -1.6930353518
H 4.2821687926 -0.2752657401 -3.1526124411
H 1.0143998142 -2.6536562452 0.1461041496
H 0.9126938536 -2.5187133448 -1.6303213745
H 2.7820059362 2.0964463828 1.4426313324
H 1.2320727053 1.813481085 2.2935193783
H 2.0651194177 -0.3032331769 3.2168042301
H 3.541491044 -0.1986804864 2.25336281
H 3.261170163 0.9498652005 3.5767008356
H -3.2993600498 1.4819836424 -2.4080399295
H -4.9362845749 0.77583337 -2.25880342
H -3.5219026508 -0.286629925 -2.5404541063
H -3.8388852786 -0.4026157397 3.1115536961
H -2.7707289869 -1.5284474901 2.2221108903
H -4.3170625058 -0.9985958504 1.4898392832
*
