! r2scan-3c def2/J RI DEFGRID2 scfconv6 printgap
%output
    printlevel normal
end
* xyz 0 1
C 5.0671707812 -1.4738416175 -0.5529126396
C 4.5742154147 -0.3972784009 -1.4967412729
O 3.1604052088 -0.1526289451 -1.3451167809
P 2.5671665958 0.5088635804 -0.0280685868
S 3.6945575091 1.845382914 0.8517351669
O 2.2227805218 -0.7791328879 0.848592207
C 2.0703618911 -0.7153468155 2.2749704867
C 0.88830215 0.1359753939 2.6911301409
S 0.7247045135 1.1723369815 -0.8246452743
C 0.1575569486 -0.3971509644 -1.5505530494
S -0.688764302 -1.4807289657 -0.3721670653
P -2.4504524998 -0.3385984332 -0.2283132742
S -3.0913855914 0.4993830215 -1.8873109556
O -2.1122403709 0.6355574577 0.9679813008
C -2.7774401677 1.9025394246 1.1723413057
C -1.7492513273 2.9262832954 1.6079225621
O -3.4899984456 -1.324556455 0.4593926324
C -4.1922354975 -2.33767059 -0.2896334112
C -5.4275188938 -2.7265785003 0.4972456264
H 6.1036139765 -1.7028350882 -0.780201969
H 5.000837001 -1.1223238278 0.4757992431
H 4.4654958104 -2.372924589 -0.657752637
H 4.6759689377 -0.6941433857 -2.541461889
H 5.1074816814 0.5425516649 -1.322979917
H 1.9440754632 -1.7569902739 2.572573819
H 2.9936249522 -0.30959409 2.7009899814
H 0.7988124975 0.1232746923 3.7727293192
H 1.0441623162 1.1636090914 2.3610579168
H -0.0331809885 -0.2381840079 2.2513880976
H 1.0089675012 -0.9437516246 -1.9433405441
H -0.5418578543 -0.1238846047 -2.3415538154
H -3.2616655572 2.2014047813 0.236427285
H -3.5375108019 1.7458590197 1.9403888103
H -2.2439751704 3.8781869361 1.7711809344
H -1.2704656347 2.6069734856 2.5289899054
H -0.9896359811 3.0457388624 0.8386325576
H -4.4539262223 -1.92742872 -1.2708623762
H -3.5191015758 -3.1883049839 -0.4235814508
H -5.140837561 -3.0906550369 1.4794871115
H -6.0807855072 -1.8668931998 0.6171459632
H -5.9583299305 -3.5080924851 -0.0363491975
*
