! pbe def2-sv(p) def2/J RI DEFGRID1 loosescf d4 GCP(DFT/SV(P)) printgap
%output
    printlevel normal
end
* xyz 0 1
C 5.223099412 1.4552805356 -0.5430985467
C 4.1061759029 0.893423101 -1.4014588235
O 3.3204665166 -0.0627472664 -0.6672287718
P 1.9673691541 0.3531523754 0.0852786242
S 2.1538723578 1.7919633437 1.4007189795
O 1.5500751834 -1.0720546278 0.6273946318
C 1.8304094713 -1.5081084928 1.9744376917
C 0.7534831477 -2.4848610179 2.3998130283
S 0.6310206576 0.715549566 -1.5105704377
C 0.2529363584 -0.9793439491 -1.998250176
S -0.8781100208 -1.8979259937 -0.8746954809
P -2.0040194851 -0.4055756365 0.0803452652
S -3.5349406366 -1.1029216233 1.0822544256
O -2.3642965415 0.7024792935 -1.0073927853
C -3.5631944675 0.6371866921 -1.7978047071
C -3.3958999187 -0.2788580517 -2.9939979517
O -0.9047561916 0.3377455879 0.9661499921
C -1.2962475756 1.1125764133 2.1189814669
C -1.9868029633 2.4000192399 1.7253884987
H 4.8116763476 2.0077361873 0.2987882354
H 5.8420440174 0.6479008151 -0.1619962676
H 5.832506356 2.1243895582 -1.1418506119
H 4.5041240135 0.3332878557 -2.2498765428
H 3.4512809425 1.6919450865 -1.7660750964
H 2.8136602675 -1.9841231631 1.9646828791
H 1.8631733224 -0.6308663294 2.6300261543
H 0.973009409 -2.8422237414 3.4005658542
H -0.2221641822 -2.0026732371 2.4025215647
H 0.7191062246 -3.3262600455 1.7130887683
H 1.1654062997 -1.5703793499 -2.0355438545
H -0.2147749373 -0.9117661977 -2.9773472476
H -4.3846123303 0.2969900148 -1.1577924118
H -3.7360505684 1.6694521862 -2.1054947904
H -2.5597762097 0.0522396236 -3.604202095
H -3.2199610094 -1.3013746097 -2.6629455955
H -4.3028718592 -0.2544243681 -3.5896137229
H -1.948411377 0.4939179556 2.7442930029
H -0.3561743775 1.30899957 2.6381328759
H -1.3601017493 2.9627911202 1.0374744682
H -2.9391983701 2.181424682 1.2450660945
H -2.1655701361 2.9936231735 2.6163519251
*
