  22
        -25.84166624
 C          2.8095477825       -0.0000043619        0.0067068821
 N          1.3962158440       -0.0000038833       -0.3071201421
 C          0.7323752849        1.1832981427        0.2105444665
 C         -0.7323701848        1.1833560241       -0.2104971272
 N         -1.3962132127        0.0000293179        0.3071040541
 C         -0.7323879909       -1.1833226607       -0.2104720523
 C          0.7323761686       -1.1833204121        0.2105160257
 C         -2.8095455383       -0.0000202137       -0.0067859103
 H          3.2686096000       -0.8854263639       -0.4291519871
 H          3.0018961092        0.0001933876        1.0913967296
 H          3.2686662756        0.8852230631       -0.4294899485
 H          0.7885170959        1.2226874617        1.3133868069
 H          1.2286504686        2.0669332187       -0.1963327647
 H         -1.2286111448        2.0669960359        0.1964451677
 H         -0.7885193647        1.2228318791       -1.3133420392
 H         -1.2286555018       -2.0669356217        0.1965086098
 H         -0.7885744471       -1.2228317614       -1.3133270517
 H          0.7885961925       -1.2227738453        1.3133606255
 H          1.2286179448       -2.0669558923       -0.1964279421
 H         -3.2686552995        0.8852073164        0.4292617703
 H         -3.2686507151       -0.8853409180        0.4292340926
 H         -3.0018704188       -0.0000007649       -1.0914448883
  22
        -25.84044506
 C          2.6587170218        0.0000707918        0.3928585343
 N          1.3481043711        0.0000252897       -0.2201379383
 C          0.5903830799        1.1907403030        0.1277053210
 C         -0.7525877027        1.1825861075       -0.6119010290
 N         -1.5529217135        0.0000120030       -0.3496739279
 C         -0.7526952101       -1.1826865612       -0.6117335168
 C          0.5905218459       -1.1908447456        0.1274937084
 C         -2.2004566502        0.0001165843        0.9469146100
 H          3.2016254562       -0.8858003470        0.0683204643
 H          2.6123516180        0.0004986084        1.4947696082
 H          3.2018329463        0.8855369103        0.0676942513
 H          0.4225032598        1.2558282423        1.2200181386
 H          1.1660395398        2.0674085244       -0.1767618072
 H         -1.3301719378        2.0684661340       -0.3431070414
 H         -0.5533757453        1.2036914303       -1.6865948377
 H         -1.3302265206       -2.0684351112       -0.3424009880
 H         -0.5538734110       -1.2042509019       -1.6865010082
 H          0.4229592444       -1.2563488947        1.2198277506
 H          1.1661798682       -2.0673405447       -0.1774578104
 H         -2.8324394661       -0.8839791143        1.0166813958
 H         -2.8321755565        0.8843994840        1.0166774571
 H         -1.5103574342        0.0000161130        1.8022837955
  22
        -25.83860374
 C          2.3775774768       -0.0000214364        0.4966027606
 N          1.3715182242        0.0000003292       -0.5467969779
 C          0.5333731149        1.1917099947       -0.5542236961
 C         -0.5332512474        1.1917783902        0.5538723527
 N         -1.3713100109        0.0000049459        0.5468065260
 C         -0.5332348294       -1.1917512869        0.5539050207
 C          0.5333711308       -1.1917066859       -0.5542085852
 C         -2.3779797318       -0.0000033278       -0.4960110961
 H          3.0012318963       -0.8842414792        0.3721843203
 H          1.9748028362       -0.0001116097        1.5183887225
 H          3.0012087638        0.8841262475        0.3721981409
 H          1.1732869478        2.0700145490       -0.4556322643
 H          0.0442909920        1.2351846890       -1.5326348964
 H         -0.0441184463        1.2355423405        1.5322480153
 H         -1.1732354809        2.0700045612        0.4550747071
 H         -0.0440670285       -1.2354695596        1.5322685754
 H         -1.1732098632       -2.0699952031        0.4551764084
 H          1.1732805825       -2.0700145543       -0.4555968502
 H          0.0442919840       -1.2351644024       -1.5326218037
 H         -3.0016801577        0.8840079523       -0.3710424187
 H         -3.0013838553       -0.8842626325       -0.3713365090
 H         -1.9758756389        0.0002384895       -1.5180531754
  22
        -25.83674696
 C          2.8322796023        0.0000039516       -0.0352674348
 N          1.3931543180       -0.0001549305       -0.2811624908
 C          0.7275043433        1.1841959244        0.2293637637
 C         -0.7338267771        1.1831121933       -0.2057799126
 N         -1.4029445557       -0.0001950837        0.3046970504
 C         -0.7335983873       -1.1831265966       -0.2064165458
 C          0.7272915803       -1.1840562241        0.2299794388
 C         -2.8125308519        0.0000929909       -0.0260859968
 H          3.1387883571        0.8809466148        0.5303109525
 H          3.3585598608        0.0016574619       -0.9914545772
 H          3.1392525497       -0.8823567192        0.5276209938
 H          0.7696632592        1.2290171087        1.3327996877
 H          1.2235420142        2.0666104062       -0.1796114806
 H         -1.2343039459        2.0666599274        0.1960951139
 H         -0.7788346761        1.2224258321       -1.3091682278
 H         -1.2343650581       -2.0671080470        0.1943693881
 H         -0.7777063411       -1.2214999181       -1.3098448006
 H          0.7683294051       -1.2277641989        1.3335410875
 H          1.2237281913       -2.0669231976       -0.1775595851
 H         -3.2770666054       -0.8857509999        0.4031096915
 H         -2.9914903675        0.0013473397       -1.1131384883
 H         -3.2768847236        0.8849541103        0.4051715466
  22
        -25.83509360
 C          2.3873360432       -0.0004451626        0.5016947449
 N          1.3680535758        0.0001732263       -0.5426006877
 C          0.5288783432        1.1900016684       -0.5613119511
 C         -0.5316021246        1.1910160434        0.5530574964
 N         -1.3704284906        0.0000296899        0.5473264218
 C         -0.5313188799       -1.1907539766        0.5531637782
 C          0.5290285839       -1.1897824478       -0.5613271953
 C         -2.3802407733       -0.0001819754       -0.4919643759
 H          2.3217703874        0.8858883377        1.1331217435
 H          3.3722210337       -0.0100112168        0.0275396439
 H          2.3103442636       -0.8773797368        1.1450392670
 H          1.1662333264        2.0713789728       -0.4778574886
 H          0.0350944239        1.2225676198       -1.5375281509
 H         -0.0342961011        1.2253929915        1.5283572047
 H         -1.1712881124        2.0706110052        0.4639191625
 H         -0.0340598780       -1.2247577179        1.5285029906
 H         -1.1707601880       -2.0705552685        0.4643790492
 H          1.1665960963       -2.0710092039       -0.4778554492
 H          0.0351717740       -1.2224377212       -1.5374959837
 H         -3.0029345726       -0.8847831165       -0.3655833736
 H         -1.9819057419        0.0004291150       -1.5155840836
 H         -3.0039839968        0.8835841103       -0.3649336415
  22
        -25.83349673
 C          2.4779076072       -0.0099955076        0.6659370096
 N          1.0674766164        0.0255231667        0.3550604988
 C          0.7071739655        1.1299595023       -0.5151566352
 C         -0.8292960477        1.2801634773       -0.5390188950
 N         -1.5318446437        0.0406595161       -0.2373160508
 C         -0.8040439490       -1.0773013940       -0.7995924503
 C          0.6109496214       -1.2385869605       -0.2038188743
 C         -1.8311477141       -0.1285764018        1.1745012532
 H          2.7603712582        0.9227170401        1.1511335441
 H          3.1067995536       -0.1492161488       -0.2289505265
 H          2.6654458095       -0.8347272963        1.3520307287
 H          1.1629089959        2.0413019860       -0.1244237404
 H          1.0947471792        0.9716596864       -1.5388400541
 H         -1.1451458189        2.0338494934        0.1816455706
 H         -1.1418518185        1.6088769416       -1.5361767103
 H         -1.3818641333       -1.9895575095       -0.6430163146
 H         -0.7354146215       -0.9006294840       -1.8766628156
 H          0.6070766776       -1.9727097302        0.6068803329
 H          1.2987495163       -1.6030918112       -0.9891527312
 H         -2.3542749733       -1.0748049938        1.3022588835
 H         -2.4953518646        0.6771906105        1.4838934041
 H         -0.9398692690       -0.1222327898        1.8108245982
  22
        -25.83290568
 C          2.6764555826        0.1901400206        0.2479225356
 N          1.4243603908       -0.0836737292       -0.4239953812
 C          0.5489954037        1.0816594669       -0.5338334878
 C         -0.5489983684        1.0818287699        0.5334329686
 N         -1.4242073104       -0.0836788891        0.4240587864
 C         -0.7363377689       -1.2151953970       -0.1890763008
 C          0.7363985639       -1.2153266637        0.1887855584
 C         -2.6766232552        0.1901106840       -0.2473176054
 H          3.2040041382        0.9775467500       -0.2868721685
 H          3.2845657887       -0.7130622688        0.2257391240
 H          2.5466366589        0.4952637116        1.2983935582
 H          1.1448797559        1.9921122708       -0.4601308397
 H          0.0837208790        1.0653011149       -1.5269153812
 H         -0.0837918283        1.0661003103        1.5265694021
 H         -1.1450363883        1.9921474583        0.4592019921
 H         -1.2121892803       -2.1325142207        0.1701643395
 H         -0.8178691904       -1.1965900946       -1.2886256284
 H          0.8179100514       -1.1969540015        1.2883511412
 H          1.2122279798       -2.1326096648       -0.1706292305
 H         -3.2837916185       -0.7137421408       -0.2270019777
 H         -2.5470785884        0.4975699650       -1.2971706669
 H         -3.2050067270        0.9759264574        0.2890739996
  22
        -25.83286190
 C          2.4321980934        0.0002936366       -0.7484007628
 N          1.0378529670       -0.0002083097       -0.3692273816
 C          0.6795446643        1.1974591776        0.3698430180
 C         -0.8308147373        1.1829901407        0.7126815084
 N         -1.5210440180       -0.0004355240        0.2424145812
 C         -0.8310748233       -1.1851580762        0.7099389945
 C          0.6804565736       -1.1966784646        0.3721663723
 C         -1.7837968530        0.0014802805       -1.1865959397
 H          2.6377940277       -0.8864097981       -1.3458889107
 H          3.1081620279        0.0026777807        0.1226969563
 H          2.6360834454        0.8850500651       -1.3493728690
 H          1.2778209317        1.2827412443        1.2970753187
 H          0.9187074217        2.0565493325       -0.2609887376
 H         -0.9588691615        1.2169797323        1.7989680203
 H         -1.3251166287        2.0569729086        0.2878579129
 H         -0.9625937879       -1.2239895495        1.7956773152
 H         -1.3231406691       -2.0577760237        0.2797800329
 H          1.2760384773       -1.2776567901        1.3015179969
 H          0.9237721772       -2.0570337794       -0.2553098543
 H         -2.3732639381       -0.8822373927       -1.4261356222
 H         -0.8751621414        0.0034211630       -1.7968003770
 H         -2.3747123497        0.8850502240       -1.4232764100
  22
        -25.83264191
 C          2.5025731951        0.1305308309       -0.7429832600
 N          1.4866098166       -0.1025538418        0.2602246343
 C          0.7352682078        1.0950257765        0.6300750651
 C         -0.6039554154        1.1944848413       -0.0960201805
 N         -1.4777153737        0.0995801179        0.3081782440
 C         -0.7151231490       -1.1015190775        0.6417689524
 C          0.6002641578       -1.1932287576       -0.1276126690
 C         -2.5246584083       -0.1234124283       -0.6650409714
 H          3.0507850105       -0.7971725499       -0.9018975252
 H          3.1963246350        0.8866362681       -0.3810190930
 H          2.0906503853        0.4589060441       -1.7116694725
 H          0.5492008576        1.0652044403        1.7079742360
 H          1.3394712058        1.9769097327        0.4144569429
 H         -1.0999602347        2.1378522717        0.1512748759
 H         -0.4222065684        1.1869708247       -1.1865151365
 H         -0.4947726611       -1.0825695928        1.7134322906
 H         -1.3260068804       -1.9812882199        0.4366068132
 H          1.1037070239       -2.1390953773        0.0937115317
 H          0.3838643733       -1.1741504304       -1.2116359125
 H         -2.1432936726       -0.4416408891       -1.6494955001
 H         -3.0775250557        0.8057372189       -0.7971016582
 H         -3.2067350002       -0.8833919710       -0.2893277624
