! pbe def2-sv(p) def2/J RI DEFGRID1 loosescf d4 GCP(DFT/SV(P)) printgap
%output
    printlevel normal
end
* xyz 0 1
C 4.9829617051 1.2433782597 -1.0225656695
C 4.5206132157 -0.1921134705 -1.1560978613
O 3.6852038892 -0.615490275 -0.0619580318
P 2.374751354 0.132086891 0.4361630447
S 2.5760965614 1.7411463371 1.5258044979
O 1.6604396091 -0.9893055798 1.2836207036
C 1.4384777587 -2.3416989647 0.8190438609
C 2.5014597598 -3.2724701883 1.3630930568
S 1.2623734222 0.3650072298 -1.3714155238
C 0.1088042841 1.6070636196 -0.7345441605
S -0.9183591356 1.0336657562 0.6433967784
P -2.2647072881 -0.181441983 -0.5029223479
S -1.5003204669 -1.824032136 -1.2432060515
O -2.8764885954 0.7439909786 -1.6202037464
C -3.9863573488 1.6645915843 -1.4514261214
C -3.6565292902 2.8212257721 -0.5319434312
O -3.4733786902 -0.3993378605 0.5011437771
C -3.3754277598 -1.3401845515 1.5894111646
C -4.7777493549 -1.6177505737 2.0912837689
H 5.6783510393 1.473317785 -1.8233628111
H 4.1319015 1.9199547786 -1.0848049757
H 5.4720893942 1.3965171339 -0.063524922
H 5.3618366186 -0.8866615028 -1.1195557909
H 3.9622601933 -0.3350380249 -2.0856692805
H 0.4466987766 -2.605150972 1.1929551158
H 1.4160028111 -2.3515226453 -0.2746768571
H 3.4800425497 -2.9865512269 0.9868042678
H 2.5151750402 -3.2240163658 2.4484310425
H 2.276207311 -4.286773579 1.0491787923
H -0.5204170047 1.8985913015 -1.5726031296
H 0.6775917161 2.4508492556 -0.3433958669
H -4.1802799757 2.0027101624 -2.4706105818
H -4.8410509726 1.1003700191 -1.0763193026
H -4.5003081799 3.5041953531 -0.5135182983
H -3.4703188569 2.4641621726 0.4783935107
H -2.7774410921 3.3560230567 -0.8829833043
H -2.8932439764 -2.2509706053 1.2184670609
H -2.7506193197 -0.8954365887 2.3690228667
H -5.243257239 -0.6954460035 2.4260914739
H -5.3792880728 -2.0506805905 1.2970718194
H -4.7259410472 -2.3149297044 2.9210013241
*
