! wb97x-v def2-tzvp def2/J RIJCOSX DEFGRID2 scfconv7 GCP(DFT/TZ) printgap
%output
    printlevel normal
end
%cpcm
    smd true
    smdsolvent "water"
end
* xyz 0 1
C -1.2417171376611873 2.441383255408117e-05 -7.246186059729947e-05
Cl 0.5819334651190338 5.470080672931186e-05 0.00011887064773768615
H -1.5764950509414777 -0.08296051556746 -1.033343109833324
H -1.5764611082200188 -0.8533992031744546 0.5883267986259
H -1.5762845782753214 0.9362867027499879 0.44488419577837474
*
