  22
  -59.1123658500000       0.500021163898568      !md3
 C         -1.5053097154       -0.8350044952        0.7343116373
 C         -0.8040821923        0.1742289394        0.0822467528
 C         -1.5009860622        1.1897094481       -0.5657161486
 C         -2.8851938884        1.1812719506       -0.5778159110
 C         -3.5964526629        0.1694306771        0.0634336035
 C         -2.8894098381       -0.8330410459        0.7236643116
 Cl        -3.7523607539       -2.0878671310        1.5359933142
 Cl        -5.3219024891        0.1590255373        0.0430020162
 Cl        -3.7433411954        2.4341969036       -1.3965731684
 C          0.6714639398        0.1919341344        0.0850620756
 C          1.3406283090        1.3432917374        0.4880059858
 C          2.7238637134        1.3920033042        0.5081280056
 C          3.4730245511        0.2848575472        0.1139867364
 C          2.8135539694       -0.8680046262       -0.3069321129
 C          1.4206863818       -0.9155254961       -0.3200262326
 Cl         0.6491296015       -2.3417669679       -0.9010870570
 Cl         3.7303193877       -2.2331041070       -0.8161185157
 Cl         5.1926395531        0.3346418310        0.1365613415
 Cl         3.5291515660        2.8234052728        1.0215888508
 H         -0.9834697264       -1.6131232933        1.2653629457
 H         -0.9708398901        1.9749981027       -1.0781056893
 H          0.7745763934        2.2031086885        0.8061758372
  22
  -59.1123657700000       0.499978836101432      !md2
 C         -1.5003723503       -0.1470690595        1.3111246220
 C         -0.8040007348        0.1336529999        0.1394159928
 C         -1.5057823470        0.4199372988       -1.0272105730
 C         -2.8898466740        0.4098013438       -1.0214631629
 C         -3.5963634881        0.1130559145        0.1418645187
 C         -2.8845836767       -0.1618551117        1.3075036477
 Cl        -3.7420840561       -0.5263546385        2.7596017045
 Cl        -5.3218860747        0.0899780730        0.1393533272
 Cl        -3.7536259426        0.7674623776       -2.4723678416
 C          0.6715254994        0.1427483605        0.1541691012
 C          1.3411880003        0.9002998574        1.1099249100
 C          2.7244478298        0.9366611147        1.1475974306
 C          3.4731198685        0.2030232645        0.2290678144
 C          2.8131663441       -0.5722222983       -0.7220657511
 C          1.4203061314       -0.6014236926       -0.7609438548
 Cl         0.6482820661       -1.6176225036       -1.9180381179
 Cl         3.7293524372       -1.4988929620       -1.8468494075
 Cl         5.1929139483        0.2425074144        0.2664065571
 Cl         3.5303144199        1.8905873643        2.3314746183
 H         -0.9698093605       -0.3747128225        2.2205874895
 H         -0.9845082262        0.6676410033       -1.9363793121
 H          0.7754293325        1.4814201659        1.8193390988
