! pbe def2-sv(p) def2/J RI DEFGRID1 loosescf d4 GCP(DFT/SV(P)) printgap
%output
    printlevel normal
end
* xyz 0 1
C 4.5529719263 -1.730848729 -0.5208267855
C 4.6072494039 -0.2411110665 -0.2512473451
O 3.4598815469 0.2167693548 0.4841234499
P 2.0072187622 0.3009315381 -0.1637567604
S 2.0267280481 0.8109268434 -2.0629559647
O 1.2654946237 1.1950697749 0.9120966978
C 1.7295581767 2.4714212528 1.3972226446
C 1.8866786884 3.4921417517 0.2896058431
S 1.1260634315 -1.5613589544 0.2557702464
C -0.0280869757 -1.7112071918 -1.1503853703
S -1.7436298387 -1.8807466801 -0.62926222
P -2.0064758622 0.0652920582 0.1957045714
S -1.3340760157 1.5184765227 -0.9350358956
O -1.323707385 0.1473954784 1.6142443876
C -1.7893731323 -0.4743415472 2.8385676964
C -1.7285736507 -1.9872845158 2.7940058329
O -3.5461499698 0.0818164043 0.5840008674
C -4.6227687653 -0.346852768 -0.2710953841
C -4.6485653678 0.3863092449 -1.5954282645
H 4.3782995952 -2.2765059571 0.4028601752
H 3.7467885712 -1.9518959083 -1.2186262896
H 5.4935817807 -2.0496572882 -0.9580781174
H 4.6596051153 0.3171938765 -1.1915731411
H 5.4504170888 0.0237514204 0.3881680665
H 0.9502114835 2.7691250786 2.1013690498
H 2.6732367643 2.3124518319 1.9247729342
H 2.6873155756 3.1967057419 -0.3874734255
H 0.9633918603 3.5653562005 -0.2831688303
H 2.1219352481 4.4608877796 0.7187248694
H 0.210954347 -2.6229930374 -1.6916202621
H 0.0876717636 -0.8304224381 -1.7891947817
H -1.1074611806 -0.0718162248 3.5895457556
H -2.8051355702 -0.1247257422 3.0314189442
H -1.941041232 -2.3738217739 3.7860260532
H -2.4632445862 -2.3828982359 2.0965710547
H -0.7382562412 -2.3176637311 2.487537351
H -4.524723853 -1.4242869822 -0.4286752703
H -5.516296162 -0.1354817042 0.3190504432
H -4.6826297525 1.461359335 -1.4347595806
H -3.7530754502 0.1556927956 -2.1708182627
H -5.5217435253 0.0783171639 -2.1613125141
*
