! pbe def2-sv(p) def2/J RI DEFGRID1 loosescf d4 GCP(DFT/SV(P)) printgap
%output
    printlevel normal
end
* xyz 0 1
C 2.347761272 2.0377168778 2.7526697129
C 1.3708587289 1.7535184147 1.6304911947
O 0.8829073826 0.3912462625 1.6983842977
P 1.4940633806 -0.7782322298 0.8381164158
S 0.7394601296 -2.5399525131 1.235409826
O 3.0405895712 -0.6472089194 1.2060438367
C 4.0165851016 -1.6366076579 0.8322750432
C 4.7678762104 -1.2296908843 -0.420806908
S 1.4428885872 -0.1699948822 -1.2055179469
C 0.2263995852 -1.3351854432 -1.8587031021
S -1.3200562371 -0.5704955045 -2.4417901651
P -2.0009248102 0.4325181918 -0.7150124039
S -3.8819773386 0.9671703911 -0.7652919139
O -0.9853908809 1.6300398135 -0.4286772674
C -1.1403142668 2.9203893058 -1.0465522492
C -0.741141879 2.9004473176 -2.5088400249
O -1.5601268009 -0.5902434922 0.420104617
C -2.3930007408 -0.8350662694 1.5722101977
C -2.3324885091 0.3099059039 2.5597527742
H 3.2340578752 1.4183051284 2.6487006249
H 2.6342279247 3.0841225026 2.7140679255
H 1.884861958 1.8286563302 3.7133277705
H 1.8299933952 1.9162555351 0.6516268011
H 0.4726488614 2.3676107999 1.7206180522
H 4.6893059434 -1.6968173091 1.6901764122
H 3.5132984657 -2.6006082028 0.7050989473
H 5.2197780782 -0.2517144687 -0.2822833507
H 5.5479236842 -1.9590070202 -0.6142707662
H 4.0997705447 -1.1879632943 -1.2769198903
H 0.0079434565 -2.0800722655 -1.0893994995
H 0.6486001386 -1.7984214109 -2.7472869137
H -2.183243875 3.2339573993 -0.9322362503
H -0.4893848411 3.573971787 -0.4638435914
H 0.2555320189 2.4800692366 -2.622167251
H -1.4441299438 2.2978547059 -3.0826077313
H -0.7505357075 3.9146312672 -2.8948904506
H -3.4192739739 -0.9964155881 1.2283054628
H -1.9923396255 -1.7588681451 1.9939550736
H -2.9403151577 0.0661279648 3.4253187989
H -1.305421995 0.4774059775 2.8723480922
H -2.7200782929 1.2157563136 2.0948633062
*
