! r2scan-3c def2/J RI DEFGRID2 scfconv6 printgap
%output
    printlevel normal
end
%cpcm
    smd true
    smdsolvent "water"
end
* xyz 0 1
C 5.2190531473 -2.5206354002 -1.0031032779
C 4.1846387793 -1.4642648504 -1.3355072112
O 3.2331426558 -1.4212551869 -0.2533761785
P 2.2696176371 -0.1800175621 -0.03864408
S 3.1399898958 1.5824151551 -0.0703557531
O 1.5235815786 -0.5698989499 1.2985363949
C 1.9556529966 -0.0809105689 2.5865455721
C 3.2766707829 -0.6960577093 2.9953995054
S 0.7485160006 -0.4802050283 -1.475648774
C -0.0051507581 1.1592183428 -1.2895191352
S -0.9378755856 1.3384526754 0.2447555614
P -2.811155855 0.5234326547 -0.4032562695
S -3.0425283149 0.5124442066 -2.347888722
O -3.9047180435 1.3892139657 0.3210310489
C -4.2990328234 1.2638447493 1.7115296022
C -3.1460146577 1.4910753286 2.6646951315
O -2.9966427318 -0.8906428146 0.3058158118
C -2.3683904886 -2.1018429246 -0.1552082399
C -1.3299901377 -2.5664590152 0.8468689269
H 5.7501000583 -2.2535356613 -0.0939482326
H 4.7323982853 -3.4805688129 -0.8582189079
H 5.9269826139 -2.5955679434 -1.8219464865
H 3.6455818763 -1.7080522466 -2.2550270465
H 4.6402505163 -0.4736454038 -1.4406054764
H 2.0306986309 1.0097825103 2.5359115317
H 1.1466707649 -0.3652133792 3.2600978507
H 4.0599162377 -0.3705233296 2.3116212267
H 3.529909499 -0.3744972286 4.0007048801
H 3.2116974253 -1.780313805 2.9646519154
H -0.6773041115 1.2976871086 -2.1379867713
H 0.7833471466 1.9121056506 -1.2756049256
H -5.0687522427 2.029455822 1.8187640658
H -4.7349520575 0.2731397208 1.8518779137
H -2.3966080948 0.711511495 2.5406257368
H -2.6796901745 2.4549565259 2.476296543
H -3.5175829398 1.4657398146 3.6844184408
H -3.1780151136 -2.8288749321 -0.2481689988
H -1.9276925071 -1.9315724473 -1.1429912404
H -1.7897206706 -2.7050397572 1.8212761357
H -0.9109123567 -3.5087873548 0.5093493214
H -0.5264976189 -1.839178721 0.935265667
*
