  27
        -33.61245751
 C         -3.4179665091        0.5931569695        0.0634911045
 C         -1.9229347436        0.4980820503        0.0731584919
 C         -1.1285744895        1.5063757704       -0.2602164200
 C          0.3668852456        1.4493599407       -0.2655063041
 C          0.8712003137        0.0014220163       -0.2885257534
 H          0.6224185263       -0.4202621769       -1.2690037612
 C          0.1241421325       -0.7904833239        0.7868381408
 C         -1.3741223900       -0.8556530410        0.4706841592
 H         -1.9144153566       -1.2125363361        1.3569418432
 O         -1.6733286863       -1.8386526335       -0.5145970665
 C          2.3711184605       -0.0583789525       -0.1316566126
 C          3.1543359428       -0.2920467669       -1.1739404805
 C          2.9328511832        0.1668715244        1.2389302310
 H         -3.8363703840       -0.2604507148       -0.4677726646
 H         -3.7504848130        1.5120933491       -0.4110158780
 H         -3.7994303728        0.5658663670        1.0839134413
 H         -1.5618961927        2.4599000869       -0.5323937497
 H          0.7540655680        1.9902652525       -1.1321239311
 H          0.7398563699        1.9617907544        0.6265382193
 H          0.5115466874       -1.8094206892        0.8500547975
 H          0.2486443688       -0.3074113801        1.7558153400
 H         -1.2159678814       -1.6044983918       -1.3335370674
 H          4.2273359085       -0.3192968559       -1.0854962657
 H          2.7579124696       -0.4667268705       -2.1603275291
 H          2.7008284670       -0.6798635483        1.8829947316
 H          4.0126290784        0.2786390931        1.1943077298
 H          2.5068863842        1.0586715885        1.6934113226
