! pbe def2-sv(p) def2/J RI DEFGRID1 loosescf d4 GCP(DFT/SV(P)) printgap
%output
    printlevel normal
end
* xyz 0 1
C 3.7737685587 1.4655010229 -1.5312549616
C 2.3426921462 1.6574219941 -1.0770293326
O 1.6960577649 0.3932288362 -0.8558414601
P 2.0248143377 -0.536687555 0.3850069052
S 2.6578375617 0.4340156497 1.971323036
O 3.0215308628 -1.5790469475 -0.2780797762
C 3.286089361 -2.911078311 0.2024083639
C 3.6332182636 -2.9515656839 1.6762652181
S 0.2317894797 -1.622925993 0.5862799828
C -0.5991772367 -0.4518268408 1.6944525044
S -0.8691523684 1.1845252925 0.9573988838
P -2.000231256 0.6477073976 -0.756536664
S -1.1629576282 -0.0452237636 -2.3790476435
O -2.7389347892 2.0051235655 -1.1032948181
C -3.5487422105 2.7472931781 -0.1564019255
C -2.8279337229 4.0075606461 0.2783402158
O -3.1027033574 -0.2964625471 -0.0872462385
C -3.570801959 -1.5395184055 -0.6514024807
C -3.262051007 -2.6902687896 0.2854039349
H 4.343117668 0.9749701775 -0.7418983461
H 3.8018059989 0.8434303809 -2.4220745812
H 4.2192370837 2.4316346266 -1.7459971963
H 1.7295195568 2.1369011336 -1.8423659764
H 2.3003026725 2.2389164968 -0.1490780497
H 2.4063564628 -3.5266388255 -0.0066667923
H 4.1227310535 -3.2430942592 -0.4150128277
H 3.9060946831 -3.9649431496 1.9526030441
H 4.4647690757 -2.2838578257 1.8894584391
H 2.7778665668 -2.6386505899 2.2737891654
H 0.0257043984 -0.2748130446 2.5704686662
H -1.5530858657 -0.8952379323 1.9679117313
H -4.4642827473 2.9842051652 -0.70092081
H -3.7814654137 2.1055744202 0.6961592285
H -2.5671304413 4.604765833 -0.5909578655
H -3.4793110497 4.583538016 0.9279195351
H -1.9165054461 3.7581989641 0.8178816907
H -4.6471511634 -1.4149948111 -0.7848727323
H -3.0961662357 -1.6849046582 -1.6274629666
H -3.6920458365 -2.5035638948 1.2655560075
H -3.6921777505 -3.5985222446 -0.123884777
H -2.1860114874 -2.8239156768 0.3827334449
*
