  19
  -24.3729975700000       0.500026454870382      !md2
 C         -2.1966504191        0.6922912551        0.0480035807
 C         -2.1967606227       -0.6922547220        0.0477919986
 C         -1.0023963121       -1.3986585521       -0.0043628673
 C          0.1848622099       -0.6965597237       -0.0511104836
 C          0.1849440952        0.6966416733       -0.0510816498
 C         -1.0023117980        1.3987248168       -0.0039978792
 C          1.5887331302        1.2217517361       -0.1224275759
 C          2.4427214782       -0.0000154572        0.2541480691
 C          1.5886111599       -1.2218787777       -0.1218692599
 H         -3.1336308384        1.2278549717        0.0910231699
 H         -3.1337744015       -1.2277267202        0.0905065854
 H         -1.0050465294       -2.4790207004       -0.0039247705
 H         -1.0049360289        2.4790481656       -0.0031702595
 H          1.8040556201        1.5488141859       -1.1433277503
 H          1.7539012796        2.0688301059        0.5428505140
 H          3.4082287840       -0.0001679767       -0.2483022473
 H          2.6187003535        0.0001561925        1.3309100166
 H          1.8042256233       -1.5499477452       -1.1422757025
 H          1.7532981239       -2.0683439516        0.5441753479
  19
  -24.3729974700000       0.499973545129618      !mtd14
 C         -2.1965375670        0.6923104697       -0.0504284083
 C         -2.1965334275       -0.6921912319       -0.0510471389
 C         -1.0022960123       -1.3986975220        0.0029822706
 C          0.1848760361       -0.6966731760        0.0520337032
 C          0.1848717695        0.6965705350        0.0521129940
 C         -1.0022602088        1.3987295190        0.0039360663
 C          1.5887743565        1.2216425468        0.1235474194
 C          2.4422861551       -0.0001989427       -0.2534083069
 C          1.5886895044       -1.2215299693        0.1250753503
 H         -3.1334698960        1.2278524096       -0.0943515602
 H         -3.1334360308       -1.2277765863       -0.0954208288
 H         -1.0051409168       -2.4789633381        0.0019673715
 H         -1.0048418574        2.4790433232        0.0034501609
 H          1.7537312673        2.0686563929       -0.5417023554
 H          1.8044122875        1.5485687935        1.1442350363
 H          2.6158207026       -0.0006166211       -1.3305444395
 H          3.4088713007        0.0000521760        0.2468709450
 H          1.7542713336       -2.0697880976       -0.5384823296
 H          1.8034013641       -1.5465783353        1.1467300189
