! pbe def2-sv(p) def2/J RI DEFGRID1 loosescf d4 GCP(DFT/SV(P)) printgap
%output
    printlevel normal
end
* xyz 0 1
C 2.215143558 -4.3182811979 0.0250915248
C 1.2695125947 -3.4620531767 -0.8011954172
O 1.3208732694 -2.0890419672 -0.3737003648
C 2.1859981265 -1.2793558975 -0.9566860697
O 2.9547209069 -1.6012790422 -1.8319830313
C 2.0634461983 0.1247396459 -0.3958485114
C 0.9660080165 0.9075640388 -1.1366057702
H 1.3408142749 1.2772041345 -2.0924711661
C 0.5022518706 2.0562263819 -0.2589567955
O -0.5921202752 2.0541141211 0.271772279
O 1.4103249555 2.9745756103 -0.1195249205
C 1.1232709 4.1090204182 0.7323734263
C 0.3806338478 5.1873764947 -0.0380814588
S -0.5153809929 -0.0727434862 -1.5500315363
P -1.3372510552 -0.3684202833 0.3756547285
S -0.3817397575 -0.3055697392 2.0979927801
O -2.7921300532 0.2959328817 0.4159291929
C -3.1666741054 1.4485652283 1.1689464753
O -1.7741911616 -1.8651256645 -0.0051925229
C -2.4658292879 -2.6885421863 0.937542597
H 1.9910141354 -4.2065326421 1.082706541
H 2.0977984753 -5.3585376505 -0.2596740881
H 3.2442474581 -4.0152178778 -0.1531747276
H 0.2293323652 -3.7556282323 -0.6553587885
H 1.5285234005 -3.5021022643 -1.8630703415
H 3.0110492821 0.6485819019 -0.5158034945
H 1.8098527194 0.0405736503 0.6629767656
H 0.5386185837 3.7617735217 1.5881981787
H 2.1055405912 4.4529200546 1.0551241714
H -0.5894359339 4.8192004641 -0.3636704467
H 0.2313706632 6.0468476272 0.6068560299
H 0.9555084139 5.4888564042 -0.9091036433
H -3.0664203873 2.3365191603 0.5487868706
H -2.5320703921 1.5431296671 2.0513821242
H -4.203611679 1.2927708796 1.4585105504
H -2.4921676867 -3.6833034379 0.4999797216
H -3.4775785545 -2.314570892 1.0931054681
H -1.9275581594 -2.7025518698 1.8876142464
*
