! r2scan-3c def2/J RI DEFGRID2 scfconv6 printgap
%output
    printlevel normal
end
%cpcm
    smd true
    smdsolvent "water"
end
* xyz 0 1
C 5.8368426388 -0.4945162638 -0.5159185148
C 4.3772684092 -0.8331667274 -0.7421371167
O 3.5850747883 0.258411858 -0.2379105152
P 2.0572056501 0.4289301625 -0.6512486249
S 1.7705702266 0.3878425829 -2.5866239797
O 1.7136747132 1.8160000959 -0.0001343013
C 1.4506071133 2.0923469657 1.3964587499
C 2.5218693505 1.5551516123 2.3195073422
S 1.1187193693 -1.133668024 0.4536635978
C -0.0020244004 -1.8227978499 -0.8044688781
S -1.696940955 -2.0031892298 -0.2084662975
P -2.0700812969 0.0397090875 0.2572013089
S -1.3524123643 1.3766275313 -0.9840166164
O -1.5036920241 0.2425793576 1.7160953325
C -1.8597139509 -0.5945872858 2.8479402239
C -2.9751409645 0.0368559543 3.6543339201
O -3.6413543528 0.0869026591 0.4858466761
C -4.5808573655 0.3100915317 -0.580508739
C -4.5900881916 -0.8196771147 -1.5895317196
H 6.0921723576 0.4199669272 -1.0439231828
H 6.026321155 -0.3542827884 0.544146157
H 6.4521662685 -1.306903084 -0.8880737239
H 4.0895229322 -1.7400726104 -0.2027713348
H 4.1549538022 -0.9625677036 -1.8070037425
H 1.3989948027 3.1821110504 1.4234616807
H 0.468003506 1.6776477461 1.6404568248
H 3.4968491007 1.9287768898 2.0175625675
H 2.3079258516 1.8799301043 3.3331416152
H 2.5358111925 0.4665485326 2.2904975608
H 0.3339738378 -2.825290843 -1.0574949944
H 0.0259948208 -1.1666482046 -1.6795727725
H -2.1462111903 -1.5831496554 2.4794789394
H -0.9377014081 -0.6709736567 3.427125034
H -2.6904465828 1.0371554774 3.9686589961
H -3.8816282726 0.1010515248 3.0587836088
H -3.1650078581 -0.5739839311 4.5313073644
H -5.5393163428 0.3981806641 -0.0668913994
H -4.3303634078 1.2581247256 -1.066254342
H -4.7133196915 -1.7761199394 -1.0876222755
H -5.4079549866 -0.6693123882 -2.2869624761
H -3.6538093007 -0.8312968178 -2.1458527835
*
