! wb97x-v def2-tzvp def2/J RIJCOSX DEFGRID2 scfconv7 GCP(DFT/TZ) printgap
%output
    printlevel normal
end
%cpcm
    smd true
    smdsolvent "water"
end
* xyz 0 1
C 1.2675110019713878 -0.6975788044857235 -3.385032843555696e-06
C -5.405967770872087e-06 0.1050624130616967 3.5532784775218203e-06
C -8.871711660830366e-05 1.4418688831442608 6.620344689878815e-06
C -1.2674225469047415 -0.6977355911129751 5.549984729908447e-06
H 1.3058394007666798 -1.3538561580612092 0.8784761894569345
H 1.3057364978076371 -1.354019525527569 -0.8783643477018502
H 2.1554840465117495 -0.06031936040983933 -0.00011092418621201831
H -0.9291256285427446 2.006586622161832 1.5876672823545378e-05
H 0.9288775281747791 2.0067029704554384 -1.3650987797901241e-05
H -1.3055676388388844 -1.3541826310868816 0.8783653094149131
H -2.1554747084098143 -0.060586414564296635 0.00011321323329229403
H -1.3056689322124222 -1.3540166346857023 -0.8784748578650197
*
