! pbe def2-sv(p) def2/J RI DEFGRID1 loosescf d4 GCP(DFT/SV(P)) printgap
%output
    printlevel normal
end
* xyz 0 1
C 4.5466750403 1.2294774445 -1.7946700655
C 4.9697816195 0.4987052441 -0.5367765073
O 3.9344655706 -0.3607387175 -0.0273349401
P 2.5736471419 0.2066171089 0.5642909596
S 2.7582889736 1.8435462156 1.6174841683
O 2.0519065162 -0.9798523223 1.4627361753
C 1.5479755911 -2.2671065091 1.0378857952
C 2.4675170618 -2.982592866 0.0738788746
S 1.2655121067 0.3232947849 -1.1186799657
C 0.1462391825 1.5616257553 -0.4235157612
S -0.8761329661 0.9373785372 0.9428597616
P -2.2103087613 -0.2797650306 -0.1687266062
S -1.6040091049 -1.9436914722 -0.989944637
O -2.7516813943 0.8277411322 -1.1886984454
C -3.3309659508 0.4589571752 -2.456746742
C -4.7128982021 -0.1349195171 -2.2777026045
O -3.3544947868 -0.578334974 0.8849918065
C -4.0792642164 0.4690667128 1.578098794
C -5.480758246 -0.036236088 1.8533108618
H 3.7679861814 1.9534618106 -1.5599895766
H 5.4018820505 1.7552367446 -2.2069092142
H 4.1645008242 0.5274358331 -2.53146354
H 5.2429165352 1.2114334986 0.2476546027
H 5.8006242969 -0.182278617 -0.7262157244
H 1.4407918241 -2.8130722854 1.9764316555
H 0.5605753849 -2.1222693105 0.5887473074
H 3.4642172623 -3.0740022949 0.4973961569
H 2.0626035027 -3.9704439186 -0.1240411989
H 2.5272611724 -2.4356301787 -0.865151947
H -0.4925184013 1.9111908374 -1.2296125
H 0.7340043355 2.3750469626 0.0046168272
H -3.3589429446 1.3930093837 -3.019519646
H -2.6650284565 -0.2561184304 -2.9496689659
H -4.6440965622 -1.051276276 -1.6916126903
H -5.3651462552 0.5681184722 -1.7657393739
H -5.1326680822 -0.370438293 -3.2505713899
H -3.5407407742 0.680978089 2.5045512178
H -4.0894328497 1.3663826928 0.9542989799
H -6.0269287026 0.7173109607 2.4115522035
H -6.0000491434 -0.2408304254 0.9211133764
H -5.4356090909 -0.9525271141 2.4348154235
*
