! pbe def2-sv(p) def2/J RI DEFGRID1 loosescf d4 GCP(DFT/SV(P)) printgap
%output
    printlevel normal
end
* xyz 0 1
C 2.9787292256 2.554619721 -0.3957584679
C 3.4836853884 1.5312857925 0.600608746
O 2.3659999234 0.8154285561 1.1944979975
P 2.0934690539 -0.7148635129 0.9355754819
S 0.5755331247 -1.3829361107 1.9678106659
O 3.5056395811 -1.3569243019 1.289921369
C 3.6813151276 -2.7549625984 1.5829016165
C 3.3955670673 -3.6387612082 0.3862888135
S 1.9608226883 -0.9446461114 -1.1846926598
C 0.1944632374 -0.651874241 -1.3089128722
S -0.2096696498 1.1071453554 -0.9703873516
P -2.2323663056 0.7768005286 -0.5464979978
S -3.1731152279 -0.5343945518 -1.667056641
O -2.9106037955 2.2156404444 -0.5191252182
C -3.5040125032 2.8059097278 -1.6903431759
C -2.4589630509 3.1988689549 -2.7140853128
O -2.1157619887 0.4566959131 0.9995733473
C -3.2334728843 -0.0215827647 1.7813801054
C -3.2304310444 -1.5353973198 1.8567062744
H 2.2529473206 3.209704618 0.0777377361
H 3.8177741873 3.1432306496 -0.752511718
H 2.498900346 2.0656909069 -1.240505791
H 3.987752889 2.0094553358 1.4418378335
H 4.1571901421 0.8129831654 0.1287453
H 4.7248176384 -2.8224257986 1.8938964812
H 3.0260281593 -3.0158748792 2.4196568157
H 2.3337675384 -3.6122203556 0.1466840386
H 3.9593032688 -3.3002399716 -0.4792407153
H 3.6753571106 -4.6602598396 0.6231518338
H -0.3243736008 -1.270423557 -0.5734293268
H -0.1093489938 -0.9038440933 -2.3224132548
H -4.212230637 2.0883381075 -2.1172023284
H -4.0397192511 3.6735881965 -1.3031910801
H -1.6994996533 3.8275087538 -2.2561365982
H -1.9798624295 2.3072125044 -3.1165574713
H -2.9360082393 3.7394605127 -3.5251808207
H -3.0819459874 0.4234556264 2.7660716478
H -4.1634065459 0.3530474794 1.3445958041
H -4.0091314753 -1.8624532242 2.5378508092
H -3.4129614658 -1.9653876678 0.8740378801
H -2.264863023 -1.8835072851 2.2175797944
*
