! r2scan-3c def2/J RI DEFGRID2 scfconv6 printgap
%output
    printlevel normal
end
* xyz 0 1
C 5.4435989605 -1.5595571848 -2.023889396
C 4.726807037 -2.5357949978 -1.1050682848
O 3.309190113 -2.5467460337 -1.3719455846
C 2.5450459693 -1.6690581086 -0.7610202921
O 2.9396800177 -0.842611442 0.036616961
C 1.0898914512 -1.8330476224 -1.1417994307
C 0.3046629653 -0.607490112 -0.6963107349
H 0.5195716834 0.273210969 -1.3064185321
C 0.5955230994 -0.2892469671 0.7605992157
O 0.4738359341 -1.1024363358 1.6526270027
O 0.9025997902 0.9764766955 0.9200944054
C 1.2358334202 1.4467039848 2.2404155519
C 0.7667834533 2.8818143356 2.3814565303
S -1.4818405699 -0.9695608495 -0.807872388
P -2.1667255226 0.8791115986 -0.0125514102
S -1.4046867632 2.4983542933 -0.7919458324
O -3.7480438032 0.7282193058 -0.1697141791
C -4.3686952427 0.7953809517 -1.4609413486
O -2.0129148104 0.8187088526 1.5621477978
C -2.5691827921 -0.2378919948 2.3731445188
H 5.2352779107 -1.801357256 -3.0622972771
H 5.1120307245 -0.5433063674 -1.8223944253
H 6.5124923064 -1.6217977627 -1.8487680161
H 4.8822677359 -2.2686381082 -0.0560431637
H 5.0440002753 -3.5621979861 -1.2888395991
H 0.7145294521 -2.7166467078 -0.6176074323
H 0.9937894255 -2.0031798515 -2.2130079535
H 0.7605595267 0.786114624 2.9718618695
H 2.3226821863 1.3655288288 2.3337986557
H 1.0462829244 3.2558837348 3.3604727459
H 1.2222363784 3.4981460346 1.6118383892
H -0.3135548068 2.9349957671 2.2687483053
H -3.9827277158 1.6509720953 -2.0167694296
H -5.4316672546 0.9143609892 -1.2674376831
H -4.1755106372 -0.1250199783 -2.0107974243
H -2.7500819266 0.2093593594 3.3471762654
H -1.8381652113 -1.043584984 2.4527818533
H -3.4972171044 -0.6033043031 1.9397952737
*
