! pbe def2-sv(p) def2/J RI DEFGRID1 loosescf d4 GCP(DFT/SV(P)) printgap
%output
    printlevel normal
end
* xyz 0 1
C 4.350896697 -1.733993054 -1.2057353812
C 4.6688692243 -0.487179118 -0.4052429005
O 3.610038995 -0.1348589008 0.5000979643
P 2.1782537778 0.3510393569 0.0020713485
S 2.2278171091 1.5080823337 -1.5849081094
O 1.5947173491 0.9472409132 1.3503269521
C 1.7385862314 2.3338686568 1.7101215134
C 3.1864467766 2.7244858347 1.9161693907
S 1.0693912507 -1.4343174093 -0.1094248786
C 0.0236316208 -1.0981641952 -1.5763402474
S -1.705449613 -1.5262679585 -1.3103671671
P -2.320931968 0.1423906587 -0.1268034686
S -1.1494058819 1.7099432949 -0.18117389
O -2.6259524935 -0.4138413524 1.3348390452
C -1.6152405549 -0.7613933871 2.2977501996
C -1.4183586834 -2.2644352762 2.3501873082
O -3.7566936592 0.4833980216 -0.6600131348
C -4.8005182742 -0.49167035 -0.9167791941
C -5.6097024263 -0.7837207297 0.3292947086
H 4.0576632148 -2.5448349746 -0.5436911033
H 3.5354368157 -1.5301294993 -1.898795663
H 5.2276229241 -2.0287429805 -1.7733994845
H 4.8466069099 0.3610447029 -1.0742201944
H 5.5308804824 -0.6351849628 0.2465280777
H 1.2718449797 2.9402019235 0.9261958714
H 1.1574252854 2.4249126446 2.6289926538
H 3.6561749453 2.0550229563 2.6321564385
H 3.724332183 2.6659731623 0.9704433301
H 3.2330907854 3.7443407948 2.2849574036
H 0.3608501662 -1.7343020763 -2.3905228379
H 0.1160522619 -0.0400652357 -1.8333492929
H -0.6828458092 -0.2419427065 2.0519814049
H -1.9934211856 -0.3793011543 3.2481696789
H -2.3631171919 -2.7551743765 2.5653833247
H -1.0319579013 -2.6372675107 1.4043967783
H -0.7045915222 -2.4988886191 3.1331431633
H -5.4118313506 -0.0183337618 -1.6870271284
H -4.3406360106 -1.4000853663 -1.3149752382
H -4.9896840403 -1.2608545408 1.0825564112
H -6.0096671843 0.1398519504 0.7390322153
H -6.4301540309 -1.4451745317 0.0689041089
*
