! pbe def2-sv(p) def2/J RI DEFGRID1 loosescf d4 GCP(DFT/SV(P)) printgap
%output
    printlevel normal
end
* xyz 0 1
C 3.501343412 -3.1873922604 -0.8616269758
C 3.2397008823 -2.0073236152 -1.7742946691
O 3.450032783 -0.7486782982 -1.0850390702
P 2.3598339421 0.0413564947 -0.2761108561
S 2.9935861675 1.7929145117 0.310349461
O 1.9773338281 -0.9709617877 0.8939083425
C 1.386043847 -0.593868771 2.1486882555
C 2.0592015758 -1.3891929 3.2494468303
S 0.6763027989 0.0378026231 -1.6113309115
C -0.0022833987 1.640627616 -1.1347110287
S -0.6993699196 1.6331164613 0.5354502504
P -2.3049936905 0.2984754069 0.1148466779
S -3.1047389586 0.453643827 -1.6728262259
O -3.2442107229 0.4772233974 1.3771308451
C -3.6960691127 1.7344801792 1.9132441905
C -4.3671036811 2.6087295472 0.8740124082
O -1.7612577263 -1.1479014194 0.4640877521
C -1.77976019 -2.2721164225 -0.4439988446
C -0.6118871958 -3.1758463129 -0.107956735
H 3.4009874973 -4.1043987432 -1.4337348883
H 4.5072219131 -3.1262437273 -0.4555077034
H 2.7924904023 -3.1992876051 -0.0385854149
H 2.221396342 -2.0240153877 -2.1727831256
H 3.9537816766 -1.9763185329 -2.5990630741
H 1.5217575508 0.4825477007 2.2987831633
H 0.3166723044 -0.8172767083 2.0919307735
H 3.1182089188 -1.1480587219 3.2880211297
H 1.6006215937 -1.1369021294 4.1998950814
H 1.9454340934 -2.4537366108 3.0663014668
H -0.7863477344 1.8699611647 -1.8564870131
H 0.7861837008 2.392532264 -1.1393127822
H -4.3949371554 1.4406168819 2.6984156959
H -2.8368876778 2.2468359768 2.3553444119
H -3.646936987 2.9127265986 0.1154227937
H -5.1731452325 2.0661560219 0.385525005
H -4.7693895409 3.4953015965 1.3535544421
H -2.7330766545 -2.7870209742 -0.305148018
H -1.7213001051 -1.9034567224 -1.4732272015
H 0.325035464 -2.6407578139 -0.2366531756
H -0.6878972144 -3.5150838132 0.9211744199
H -0.6257651919 -4.0328926228 -0.7730145589
*
