! pbe def2-sv(p) def2/J RI DEFGRID1 loosescf d4 GCP(DFT/SV(P)) printgap
%output
    printlevel normal
end
* xyz 0 1
C 2.5782137964 -3.1837809694 -1.5555105081
C 2.8165105931 -2.6175238031 -0.170291646
O 3.2773629684 -1.2455649083 -0.2397435457
P 2.3232097551 0.0135062081 -0.0958175893
S 3.3792411783 1.6564902653 -0.0965121738
O 1.4126733021 -0.2680039147 1.1918091399
C 1.8976829743 0.0161777102 2.5241844324
C 1.4751719205 1.3982230088 2.9807257486
S 0.8636145126 -0.1817995189 -1.6049236961
C 0.2065420523 1.4996936511 -1.4715564255
S -0.7017462135 1.8001929536 0.0613715016
P -2.2183473215 0.3580524247 -0.292836995
S -2.885003762 0.2235099628 -2.1246085321
O -3.363887537 0.7796671666 0.7136506589
C -3.1629395145 1.2933576328 2.0512779643
C -2.5507820967 0.2637926402 2.978008039
O -1.5704684168 -0.9813724831 0.2905992744
C -1.6522667682 -2.250075948 -0.3778476644
C -2.9762818118 -2.9259805097 -0.0843245516
H 3.4766363611 -3.0811136154 -2.1576114056
H 2.3224930357 -4.2352963692 -1.4701566371
H 1.7647137844 -2.6578003806 -2.0514868911
H 3.6254163338 -3.1456776493 0.3376293157
H 1.9088294399 -2.6564810344 0.4372670783
H 1.4523029156 -0.7617751274 3.1473667702
H 2.9878676246 -0.0803084959 2.5361507707
H 0.3968363883 1.506874155 2.9108669003
H 1.7885457754 1.5435701965 4.0094755926
H 1.9387187152 2.1590801456 2.3568864358
H -0.4605472031 1.6357195966 -2.3227839795
H 1.0319085163 2.2119652208 -1.4914457442
H -2.5346446307 2.1861142679 1.9846691257
H -4.1689203219 1.5744023537 2.367263043
H -1.5626972483 -0.0194490128 2.6218048515
H -2.4651923415 0.6882876441 3.9736122083
H -3.1766075861 -0.6238178122 3.0191102789
H -1.5255853804 -2.096667115 -1.4542369813
H -0.8090599075 -2.8213892896 0.0133568295
H -3.7913675145 -2.3069790648 -0.4575754054
H -3.0077747273 -3.8899978571 -0.5817287817
H -3.1019115727 -3.0663034666 0.9857509378
*
