  20
        -45.19925603
 C          2.1813352138       -2.2018041948        0.9335500112
 O          1.8463897376       -1.4788523057       -0.2630545141
 P          1.3482367743        0.0340271797       -0.2328519426
 O          1.2490505150        0.5623988401       -1.5976010153
 C         -0.1345922093        0.1755160947        0.9141104271
 H         -0.0899754249       -0.6399471499        1.6451048038
 C         -1.3750039672       -0.0220310137        0.0527855772
 Cl        -1.1072409160       -1.4520493635       -0.9480298410
 Cl        -2.8238968138       -0.2487322751        1.0492030042
 Cl        -1.6173350292        1.3852893622       -0.9959209931
 O         -0.1447045686        1.3423488417        1.6430438450
 O          2.3777190991        0.8278755790        0.7075897785
 C          3.5975658121        1.3306985485        0.1498711185
 H          1.3460384455       -2.8461870615        1.2045663917
 H          2.4140665047       -1.5147316438        1.7468037571
 H          3.0522680050       -2.8069034104        0.6893928699
 H         -0.1355569117        2.1257873767        1.0692617332
 H          3.4471330605        1.6022870955       -0.8963331276
 H          4.3783805208        0.5739230406        0.2214677027
 H          3.8626159875        2.2069877141        0.7371189255
  20
        -45.19899611
 C          2.1576549262       -2.2276548361        0.8754220633
 O          1.8438405075       -1.4604075684       -0.2986300780
 P          1.3435305688        0.0503959639       -0.2435479888
 O          1.2632961646        0.5979023775       -1.5999369404
 C         -0.1309831995        0.1777902306        0.9119941120
 H         -0.0887874155       -0.6387862522        1.6486315097
 C         -1.3664240003       -0.0267519862        0.0620099696
 Cl        -1.1085794328       -1.4632972442       -0.9288081573
 Cl        -2.7992479181       -0.2551025740        1.0763778326
 Cl        -1.6266915244        1.3709902719       -0.9872614509
 O         -0.2109193354        1.4210173747        1.5167813964
 O          2.3733634678        0.8213389360        0.7265400794
 C          3.6053322684        1.3072254170        0.1801378167
 H          2.4642796038       -1.5760644087        1.6929560893
 H          2.9766523046       -2.8855346680        0.5915615391
 H          1.2891643096       -2.8199413557        1.1606956867
 H          0.5454186847        1.5564960742        2.1113350011
 H          3.8931712800        2.1654260995        0.7828481491
 H          3.4605613089        1.6049507872       -0.8594288002
 H          4.3672607833        0.5298814916        0.2334727231
  20
        -45.19830848
 C          2.0926853596       -2.2266101689        0.7653072541
 O          1.9398996836       -1.3943867186       -0.3989027741
 P          1.3747535016        0.0917123291       -0.4657356142
 O          1.0649876469        0.4617326378       -1.8465097552
 C         -0.0106230194        0.2702975280        0.8095096033
 H          0.1135593845       -0.4780143501        1.6007664256
 C         -1.3223714730       -0.0232992330        0.0984972723
 Cl        -1.1285377023       -1.5383923673       -0.7891042443
 Cl        -2.6561145751       -0.1782605112        1.2590838308
 Cl        -1.7100712531        1.2801008774       -1.0441178515
 O          0.0292441045        1.5021187224        1.4307712844
 O          2.5048892044        1.0762937803        0.0640669238
 C          3.1581757908        1.0424165245        1.3453733250
 H          2.9875036239       -2.8208461283        0.5887252423
 H          1.2240105478       -2.8808274656        0.8436485707
 H          2.2055548839       -1.6397760266        1.6741293721
 H         -0.1044329551        2.2266205870        0.7981829662
 H          2.4257302961        1.0415992160        2.1509454847
 H          3.7483429085        1.9559986486        1.3840028221
 H          3.8146981351        0.1762639450        1.4088409230
  20
        -45.19728795
 C          2.2087042663       -2.1773247852        0.8236424617
 O          1.9220482090       -1.4206736131       -0.3678175730
 P          1.3667481550        0.0700212279       -0.4494918151
 O          1.0331135869        0.4008503585       -1.8337998795
 C         -0.0190219764        0.1866777212        0.8224242696
 H          0.0653097502       -0.6349475201        1.5503797515
 C         -1.3274266396       -0.0189817801        0.0753784171
 Cl        -1.1951985792       -1.5209185023       -0.8510634645
 Cl        -2.6736246046       -0.1593249294        1.2255836724
 Cl        -1.6517765594        1.3419459337       -1.0139642819
 O          0.0872144125        1.4303405770        1.4210634698
 O          2.4964831628        1.0615868535        0.0429021067
 C          3.1612018925        1.1021133954        1.3178464881
 H          1.4481264849       -2.9520068897        0.9226889806
 H          2.2259137284       -1.5491264072        1.7113197076
 H          3.1842616653       -2.6357282145        0.6697212609
 H         -0.6089068053        1.5558465156        2.0917787835
 H          2.4361000957        1.1026135752        2.1285473548
 H          3.7108805968        2.0414310833        1.3167223749
 H          3.8537408064        0.2663071691        1.4053671711
  20
        -45.19602756
 C          3.3897477959       -1.7524366016        0.9440850117
 O          2.1340459165       -1.0831416500        1.1107032430
 P          1.2295256650       -0.7799066041       -0.1868387649
 O          1.2372978826       -1.8590613503       -1.1812388195
 C         -0.3743659210       -0.5599424478        0.7602869758
 H         -0.7996566060       -1.5766348457        0.7988349796
 C         -1.3301206862        0.3039241351       -0.0376719580
 Cl        -1.1921675438       -0.1293646903       -1.7476608517
 Cl        -3.0034180396        0.0470150532        0.5058438303
 Cl        -0.9450112335        2.0044781929        0.1629912484
 O         -0.2143717362       -0.0023276557        2.0165199303
 O          1.7706408068        0.5705298965       -0.8206565757
 C          2.2630878557        1.6808030167       -0.0452572456
 H          3.5399405303       -2.3553061255        1.8369538625
 H          4.1892867952       -1.0195753318        0.8424555905
 H          3.3577725041       -2.3892939526        0.0586545353
 H          0.3186203506       -0.5860532835        2.5807047705
 H          1.7950419375        2.5800101202       -0.4403191513
 H          3.3421115010        1.7291143299       -0.1824592591
 H          2.0206257861        1.5633993547        1.0087867993
