  20
        -45.19925603
 C          2.1813352138       -2.2018041948        0.9335500112
 O          1.8463897376       -1.4788523057       -0.2630545141
 P          1.3482367743        0.0340271797       -0.2328519426
 O          1.2490505150        0.5623988401       -1.5976010153
 C         -0.1345922093        0.1755160947        0.9141104271
 H         -0.0899754249       -0.6399471499        1.6451048038
 C         -1.3750039672       -0.0220310137        0.0527855772
 Cl        -1.1072409160       -1.4520493635       -0.9480298410
 Cl        -2.8238968138       -0.2487322751        1.0492030042
 Cl        -1.6173350292        1.3852893622       -0.9959209931
 O         -0.1447045686        1.3423488417        1.6430438450
 O          2.3777190991        0.8278755790        0.7075897785
 C          3.5975658121        1.3306985485        0.1498711185
 H          1.3460384455       -2.8461870615        1.2045663917
 H          2.4140665047       -1.5147316438        1.7468037571
 H          3.0522680050       -2.8069034104        0.6893928699
 H         -0.1355569117        2.1257873767        1.0692617332
 H          3.4471330605        1.6022870955       -0.8963331276
 H          4.3783805208        0.5739230406        0.2214677027
 H          3.8626159875        2.2069877141        0.7371189255
