! pbe def2-sv(p) def2/J RI DEFGRID1 loosescf d4 GCP(DFT/SV(P)) printgap
%output
    printlevel normal
end
* xyz 0 1
C 3.4897337384 2.1964398424 -0.836166274
C 2.1559018999 1.490145514 -0.9466167797
O 1.6959841175 1.0658048849 0.3621113342
P 1.8952524147 -0.3986071045 0.908707558
S 1.4683016587 -0.5736126008 2.8066923392
O 3.4009420347 -0.7130101537 0.5156842035
C 4.0244728084 -1.9548890829 0.9044849233
C 5.5226386121 -1.7910091489 0.7491642714
S 0.8208991032 -1.6964653639 -0.4033824438
C -0.7441491945 -1.7003111564 0.5188362935
S -1.3822044609 -0.0496476651 0.901416434
P -2.1494802033 0.4394602007 -1.0349805909
S -0.9011317182 0.5128940672 -2.5355604244
O -2.9379087636 1.7922859208 -0.7527829883
C -2.30460356 3.0802284086 -0.842492776
C -1.4245453592 3.3647331823 0.3583788632
O -3.3101994324 -0.5945162468 -1.3016208461
C -4.5421382886 -0.6702131256 -0.5349521466
C -4.5074772738 -1.8323903435 0.4377765344
H 4.250004058 1.5095622286 -0.4742737021
H 3.7743257985 2.5652909239 -1.8165075179
H 3.4111348933 3.0309663952 -0.1448891912
H 2.2119982449 0.6201655543 -1.6065453932
H 1.375927266 2.1597755507 -1.3149599717
H 3.748512031 -2.1717805407 1.9416370597
H 3.6384500579 -2.7469656361 0.2570929865
H 5.7658510291 -1.5492175291 -0.2815081174
H 5.8798250084 -0.993031967 1.3940836004
H 6.0116186186 -2.7194324617 1.0249037321
H -0.5850649676 -2.1858712596 1.4808089422
H -1.4578750541 -2.2479773872 -0.0934467479
H -1.7252579474 3.1168689618 -1.7710683899
H -3.1395323436 3.7801964381 -0.8991930232
H -1.0507669399 4.3817430475 0.2959751927
H -1.9905184001 3.2454083511 1.2788716397
H -0.5776782435 2.6798870339 0.3855008589
H -4.6997350142 0.2780933178 -0.0197175128
H -5.3161919038 -0.8122384339 -1.2908430839
H -3.7713946845 -1.66201827 1.2197089899
H -5.4865464951 -1.9334446005 0.8956883461
H -4.2662662663 -2.7534342269 -0.086409451
*
