! pbe def2-sv(p) def2/J RI DEFGRID1 loosescf d4 GCP(DFT/SV(P)) printgap
%output
    printlevel normal
end
* xyz 0 1
C 3.6986934564 -1.8705713192 -2.2600273511
C 3.9778171066 -0.3904103821 -2.1025506284
O 3.547537319 0.1109800913 -0.8241210206
P 2.0163742911 0.1670829978 -0.4042047501
S 0.7946467191 0.7030208652 -1.839156493
O 2.0147864033 1.2058052633 0.7820850517
C 3.1069739596 1.4751176369 1.6945904085
C 3.4563612172 0.2860890861 2.5644533202
S 1.6671423928 -1.7451117535 0.4595329712
C 0.0467855148 -1.4433699425 1.2046056381
S -1.3266740285 -1.4716833395 0.0125623646
P -2.0995879269 0.5019466386 0.2473839539
S -1.1099755325 1.6365562661 1.5011242161
O -3.6395275588 0.2397594783 0.576682219
C -4.1403881101 -0.6636481323 1.5768312905
C -3.749728446 -0.255613355 2.9825688448
O -2.2337521108 1.2362708838 -1.1353334381
C -3.1325733702 0.8853272435 -2.2143693888
C -2.8170016113 -0.4688020341 -2.8131106592
H 2.6239327552 -2.042403496 -2.3011374785
H 4.1459771511 -2.2228083445 -3.1839059755
H 4.1108242041 -2.4271248539 -1.4221907767
H 3.4704508949 0.1820657923 -2.8853374157
H 5.0472702434 -0.1754632065 -2.1169741204
H 3.9680399522 1.7969913802 1.105966486
H 2.7255052781 2.3087731504 2.2871169548
H 2.5774265157 -0.0628069135 3.1009891653
H 3.8508777477 -0.5264880167 1.9586056536
H 4.2110583651 0.5911051126 3.2828117512
H 0.0426508842 -0.4682060939 1.7028362222
H -0.1074008135 -2.2571423178 1.9080691587
H -5.222293644 -0.6224750662 1.4381701158
H -3.775521214 -1.6692022919 1.3475887291
H -2.6694546177 -0.307660499 3.1058047661
H -4.0644694959 0.7660165084 3.1806722469
H -4.2229940877 -0.9235324632 3.6948879094
H -4.1548832518 0.9250423915 -1.832813749
H -2.969403454 1.6867670212 -2.936715984
H -1.7627340691 -0.5180958358 -3.0784053848
H -3.0393594815 -1.2643562675 -2.1035329997
H -3.4179228999 -0.6116906365 -3.7055839239
*
