! pbe def2-sv(p) def2/J RI DEFGRID1 loosescf d4 GCP(DFT/SV(P)) printgap
%output
    printlevel normal
end
* xyz 0 1
C 2.4469348341 -3.0455448027 -1.1041697063
C 3.5749082288 -2.3476162392 -0.3758996377
O 3.5720922806 -0.9149171193 -0.5951706523
P 2.4329129047 0.0855516138 -0.1716395527
S 3.0843210705 1.9204819901 0.0074710895
O 1.8586454287 -0.5771940198 1.1581332282
C 1.2746621188 0.1559164835 2.2496412694
C 1.9566301259 -0.2613415574 3.5375501701
S 0.9316163442 -0.1819517763 -1.6762360137
C 0.2236660033 1.4767322047 -1.6264411259
S -0.6787320157 1.8209769591 -0.0927562256
P -2.1267917679 0.2863873213 -0.3342409913
S -2.7419846534 -0.1084518011 -2.1427883333
O -3.3151225543 0.7571560056 0.5987246047
C -3.125078965 1.1045867484 1.9940014896
C -4.4718939752 1.5194368201 2.5478344366
O -1.3948930722 -0.9076551275 0.44636125
C -1.570211446 -2.2864088352 0.0697461757
C -2.9402446274 -2.7944010354 0.4699715424
H 1.4870307127 -2.7268623075 -0.7023193042
H 2.4734625696 -2.8076441199 -2.1647202841
H 2.5476572715 -4.1185788611 -0.9746500025
H 4.5508183958 -2.653137281 -0.7558751433
H 3.5187681477 -2.5287697303 0.6989991736
H 1.3985343621 1.2289336888 2.0695516142
H 0.2098133254 -0.0880159333 2.2611098007
H 1.8617377248 -1.3334331823 3.6840030155
H 3.0113887132 -4.83392e-05 3.500778054
H 1.4912842895 0.2583132227 4.3686706373
H -0.4577969256 1.5482613507 -2.4733314338
H 1.0192454651 2.2195812392 -1.6856282292
H -2.7265782628 0.2315443592 2.5162451179
H -2.3993187835 1.9209617224 2.0481315749
H -5.1811157189 0.7015022488 2.4599308589
H -4.3593725518 1.7893731411 3.5928443878
H -4.8540534521 2.3725725073 1.9949636892
H -1.4236388638 -2.3745405077 -1.0112915544
H -0.7723732375 -2.8112916243 0.5978776674
H -3.7077643845 -2.2184722419 -0.0468999383
H -3.0339936408 -3.8384715955 0.1887851994
H -3.0862694149 -2.6956356023 1.5424932984
*
