  12
        -20.11350120
 C         -1.8916992642       -0.0000001473       -0.0000359347
 C         -1.2021229301       -1.2015128325        0.0000079850
 C          0.1828773729       -1.2116809479        0.0000106918
 C          0.8450873327        0.0000000871       -0.0000086654
 C          0.1828775545        1.2116811757        0.0000272843
 C         -1.2021230383        1.2015130500        0.0000127552
 F          2.2134987618       -0.0000001675       -0.0000053990
 H         -2.9701065341       -0.0000009381        0.0000720723
 H         -1.7395619630       -2.1363872181        0.0000677447
 H          0.7450121055       -2.1313959230       -0.0000649571
 H          0.7450126072        2.1313951600       -0.0000598420
 H         -1.7395612518        2.1363874874       -0.0000814641
