  30
        -44.17037660
 C         -1.9141425710       -3.0468200191        0.6956896652
 C         -0.4797142104       -2.6227487757        0.4593245801
 O         -0.2588199179       -1.2509687756        0.8370536774
 P         -0.8859827251       -0.0346949245        0.0368370098
 S         -1.2174428770       -0.3179344875       -1.8808179768
 O         -2.1965908932        0.2570266116        0.8956258562
 C         -3.2736255031        1.0716679122        0.4069460365
 C         -2.8869277722        2.5338812467        0.3092635880
 S          0.4423817993        1.4900307487        0.5889105095
 C          1.6420537378        1.2300836801       -0.7726114400
 S          2.4052511806       -0.4025214748       -0.7647820369
 C          3.3706433483       -0.3122301888        0.7884355043
 C          4.5993258170        0.5664981064        0.6742951723
 H         -2.5774806342       -2.4924847661        0.0323907628
 H         -2.0157910788       -4.1076616675        0.4895545760
 H         -2.1999577223       -2.8465690949        1.7251140085
 H         -0.2066937583       -2.7390681266       -0.5947807205
 H          0.2179178334       -3.1819600507        1.0840975314
 H         -3.5795830318        0.6898011677       -0.5729100405
 H         -4.0727334112        0.9142607360        1.1327300020
 H         -3.7638141817        3.1216402298        0.0573361944
 H         -2.4779911974        2.8804254195        1.2552238619
 H         -2.1362304716        2.6702088818       -0.4683144383
 H          2.3926741360        2.0066254599       -0.6627405559
 H          1.1177516553        1.3238731538       -1.7223019773
 H          2.6842720406        0.0361548182        1.5610632070
 H          3.6436559414       -1.3470407884        0.9870932192
 H          4.3256274672        1.6057203196        0.5113933284
 H          5.1708940875        0.5041840802        1.5967265563
 H          5.2241173321        0.2345717212       -0.1507767901
