! r2scan-3c def2/J RI DEFGRID2 scfconv6 printgap
%output
    printlevel normal
end
%cpcm
    smd true
    smdsolvent "water"
end
* xyz 0 1
C 3.6201472581 -4.011687661 -2.3546421977
C 3.342802059 -3.9194789297 -0.8626035224
O 3.3341034389 -2.5473691995 -0.421392656
C 2.212480932 -1.8626619378 -0.5225908574
O 1.1666575454 -2.3104517166 -0.940085685
C 2.3929002051 -0.4405971381 -0.0303636451
C 1.0753224564 0.3106597692 -0.0906945987
H 0.5937407337 0.1239117648 -1.0634349637
C 1.218771287 1.8155453557 0.023578304
O 2.2265792353 2.4127649024 -0.2772637964
O 0.1031878628 2.3752560609 0.441191981
C 0.0490243711 3.815537631 0.5229565267
C -0.9835853631 4.2035138437 1.5622329668
S -0.0852294813 -0.3144528148 1.166922303
P -1.8868324145 0.2011918445 0.1625690738
S -1.7708041956 0.7631667816 -1.7090801628
O -2.7909982443 -1.1023895138 0.3991088966
C -2.4962981071 -2.3198068557 -0.2928077945
O -2.6412638384 1.2494895388 1.0676208849
C -2.8957742874 0.9993564362 2.4651074803
H 4.554596682 -3.5114615373 -2.593610742
H 3.6885142174 -5.0553323169 -2.6431604682
H 2.8143388208 -3.5430945261 -2.9153673351
H 4.1378069248 -4.3855555286 -0.2807347042
H 2.3761259399 -4.3697940378 -0.6203222422
H 3.1268378822 0.068161531 -0.6596054184
H 2.787305888 -0.4681613931 0.9863941849
H 1.0500200623 4.1771084571 0.7763765194
H -0.2232411563 4.1866521652 -0.4694509198
H -1.0400355191 5.2854325858 1.6184835726
H -1.9542167024 3.8071156949 1.2781209323
H -0.7069784793 3.8066172163 2.5347154096
H -2.6438950425 -2.1836464243 -1.3647728957
H -3.1915523476 -3.0565135902 0.1002558396
H -1.4649863511 -2.6256745238 -0.10895808
H -1.9687105124 0.7219315351 2.9671772427
H -3.6289585903 0.2021680138 2.568879061
H -3.283462542 1.9354709562 2.8583563837
*
