! pbe def2-sv(p) def2/J RI DEFGRID1 loosescf d4 GCP(DFT/SV(P)) printgap
%output
    printlevel normal
end
* xyz 0 1
C 4.6541188187 0.3062753796 -1.766959503
C 4.3013053367 1.3978663134 -0.7782173367
O 3.4299224253 0.9308955292 0.2673659465
P 1.9395880621 0.4554075075 -0.0026474104
S 0.9219700166 1.5100405003 -1.3051619114
O 1.2991585216 0.5454903653 1.4371780216
C 1.9807515133 0.2930895551 2.6937086009
C 2.3317695152 -1.1679398078 2.882212655
S 2.1344587435 -1.6102614583 -0.4913757673
C 0.4188378288 -1.9162627235 -0.9465670394
S -0.7293279343 -1.747742555 0.4647434863
P -2.0795402918 -0.3289396095 -0.3269590163
S -2.1542169933 -0.1077270193 -2.264574375
O -1.8236588089 1.036797875 0.4438454973
C -1.8927270116 1.1108791432 1.8872622512
C -1.3966884212 2.4802342454 2.300383749
O -3.3926730305 -0.956485003 0.3396003034
C -4.6919684177 -0.8262582999 -0.2663391872
C -5.2419124612 0.5775571428 -0.1088003954
H 5.0238878076 -0.5733139472 -1.2463514879
H 3.7741088499 0.0284437143 -2.3448950918
H 5.4173905273 0.6725682189 -2.4460348294
H 3.8111269728 2.233485486 -1.2870406582
H 5.1809979998 1.7535982364 -0.2397439062
H 2.872255577 0.9209226891 2.7309430744
H 1.2565961277 0.629167158 3.4378933689
H 2.6823371503 -1.3152115854 3.8989957957
H 1.457504967 -1.7926536491 2.7114239081
H 3.1160213805 -1.4659916726 2.1905449143
H 0.3758588129 -2.9440098649 -1.2977782926
H 0.1078091236 -1.219688503 -1.7303991082
H -2.9300020517 0.9469827372 2.1891329435
H -1.2696201903 0.3129242653 2.302873063
H -2.018290352 3.2516427092 1.8547123679
H -1.4328725377 2.5641764344 3.3817024562
H -0.3748768978 2.6198594899 1.9565737477
H -4.6096429228 -1.0883798579 -1.3256006392
H -5.3025938274 -1.5651585436 0.2540857286
H -4.5777056809 1.2878049026 -0.602356965
H -6.2226135069 0.6343842346 -0.570514883
H -5.3247055398 0.8411635589 0.9425389915
*
