! pbe def2-sv(p) def2/J RI DEFGRID1 loosescf d4 GCP(DFT/SV(P)) printgap
%output
    printlevel normal
end
* xyz 0 1
C 4.7567990077 1.3625034754 0.4488176956
C 3.4202508665 1.6758928004 -0.1896269845
O 2.7604043714 0.4802437315 -0.6548419416
P 2.1640271754 -0.5893506666 0.3476991696
S 1.5589487286 0.0767458611 2.096125545
O 3.3453596131 -1.6490900156 0.4566592787
C 3.3670243179 -2.6701398955 1.4663844173
C 2.2939639105 -3.7133897138 1.2298640404
S 0.7788344076 -1.5333271473 -0.949027157
C 0.065023393 -0.0745268087 -1.7716485427
S -0.4092993511 1.2639457592 -0.6513416508
P -2.4446327118 0.7467336793 -0.2822343553
S -3.2482498316 -0.5228049934 -1.5463078628
O -3.1280356125 2.1650508552 -0.11009876
C -2.9779129471 3.280696572 -1.0063627527
C -3.3059533633 2.9287800454 -2.4432051443
O -2.5531124953 0.3207887819 1.238149216
C -2.9101924853 -0.9971646144 1.6875836856
C -1.7113401152 -1.9222826475 1.733146432
H 5.2654236888 2.2893157016 0.6948418291
H 4.6041411485 0.7889211134 1.3622860918
H 5.3708126995 0.7799892164 -0.232888595
H 3.5308703699 2.2812435624 -1.090075683
H 2.7581742455 2.1835481377 0.5194365809
H 4.3689574652 -3.094835674 1.3932752248
H 3.2328469599 -2.1944017574 2.4438248421
H 1.3084176632 -3.2571620687 1.3257533701
H 2.3862460063 -4.1318247362 0.2309729388
H 2.389059015 -4.5056614358 1.9652777098
H -0.8228242617 -0.436740926 -2.2963433895
H 0.7981345479 0.3352456262 -2.4607738045
H -3.6739944804 4.0215208994 -0.6087573061
H -1.953819323 3.6551684498 -0.9212734969
H -2.5827319639 2.2124524274 -2.8307697513
H -4.2971725394 2.486000123 -2.5069400537
H -3.2743813744 3.8278717634 -3.0501861222
H -3.3229212912 -0.8307166081 2.6836783133
H -3.6838323236 -1.4007453331 1.0260909426
H -1.372734702 -2.1483609773 0.7227494354
H -0.8986645889 -1.4531332442 2.2847003499
H -1.9897317059 -2.8481433614 2.2258748411
*
