! pbe def2-sv(p) def2/J RI DEFGRID1 loosescf d4 GCP(DFT/SV(P)) printgap
%output
    printlevel normal
end
* xyz 0 1
C 0.8110969688 1.3157839602 -0.9995822119
C 1.4343608229 0.3408337111 0.0074810086
H 2.4493370842 0.1165890894 -0.3381032731
C 0.6228470211 -0.9794982833 0.0662932044
H 0.5515595062 -1.2870825257 1.119372382
C -0.8043031103 -0.7662071272 -0.4619025619
H -0.7712031425 -0.8134215192 -1.5611156524
C -1.2929444449 0.6320313453 -0.0732747573
H -2.3324946861 0.7506474062 -0.4050114294
O -0.5570078887 1.6284641597 -0.7316110365
O -1.2020263308 0.7791765869 1.3163291477
O -1.7156907112 -1.7048193329 0.0394893888
O 1.1941444918 -2.0012456699 -0.7177891326
O 1.5934679368 0.9128317538 1.280173681
H 0.8916530038 0.8861268096 -2.0049742684
H 1.3371936045 2.2715653606 -0.9678069842
H -1.7465654713 1.5262143157 1.6071597545
H -1.4046126761 -2.5931141782 -0.191432525
H 2.0384810016 -2.2774642065 -0.3343046165
H 0.7052935492 1.0706518487 1.65061272
*
