! r2scan-3c def2/J RI DEFGRID2 scfconv6 printgap
%output
    printlevel normal
end
%cpcm
    smd true
    smdsolvent "water"
end
* xyz 0 1
C 3.409533033 -2.1308189903 1.8899911099
C 2.0098988969 -2.0507861989 1.3155406345
O 1.6633458468 -0.6948906323 0.9736733132
P 2.3070220042 0.0378256067 -0.2955739873
S 2.9044536186 -1.1331890698 -1.7386031506
O 3.4821188803 0.9496505278 0.2460771419
C 3.3094224475 1.8763625185 1.3479753532
C 4.675886714 2.4241877753 1.7023831751
S 0.7583625526 1.4154344034 -0.7461798548
C -0.1791560283 0.2823551181 -1.8037115155
S -0.9951334466 -1.038725346 -0.8821423395
P -2.5868705232 0.1757749437 -0.1323439329
S -3.3475642409 1.4508951208 -1.4025440635
O -2.0064879149 0.8960943422 1.1421595924
C -1.4651547473 0.1814138205 2.2821006061
C -0.5366315144 1.1257231474 3.0159293605
O -3.5910057799 -0.8750018449 0.5115542007
C -4.6425615068 -1.5133929943 -0.2368088325
C -4.1080693578 -2.4143239623 -1.3307822282
H 4.1297886366 -1.7955561111 1.1436514382
H 3.4961679326 -1.5035790141 2.7733306542
H 3.6323387185 -3.1591578137 2.1562963559
H 1.2532306006 -2.3476786572 2.0429594971
H 1.9233643589 -2.6700006728 0.4174108332
H 2.6308925053 2.6692460288 1.0213804119
H 2.8621763153 1.3390263791 2.1878547476
H 5.3364657256 1.6171555659 2.0059932082
H 5.1101517646 2.9245693321 0.8417982648
H 4.5743533049 3.1334978912 2.5173862186
H 0.5012445623 -0.1939562281 -2.5100743247
H -0.9335129073 0.8809472524 -2.316404844
H -2.3043020916 -0.1319067675 2.9057241041
H -0.9333112751 -0.7030172432 1.9187166567
H -1.076166742 2.0199603076 3.3136798374
H -0.143456871 0.6288524951 3.8968425681
H 0.2843938889 1.4161542744 2.3650524896
H -5.1899422108 -2.0780459709 0.5193315672
H -5.2847168037 -0.7349088822 -0.6593661293
H -3.6276474896 -1.8169829175 -2.104386275
H -3.3811039286 -3.1141132615 -0.9260022399
H -4.9311149578 -2.9651513531 -1.7746024092
*
