! pbe def2-sv(p) def2/J RI DEFGRID1 loosescf d4 GCP(DFT/SV(P)) printgap
%output
    printlevel normal
end
* xyz 0 1
C 5.4416239177 -1.8724295135 -0.7618477979
C 4.3590350128 -2.3267626238 0.2041163435
O 3.057793411 -2.2626927364 -0.4150225511
C 2.3998670409 -1.1267607102 -0.3814949376
O 2.8040371923 -0.1064267932 0.1420864651
C 1.0464303151 -1.2403754221 -1.0416161186
C 0.4845744459 0.1465297677 -1.3291612765
H 0.8922548195 0.5727063332 -2.2469513133
C 0.7221473206 1.1106938279 -0.1820699716
O 0.2361037713 0.9333179587 0.9193650667
O 1.3697994765 2.1809804819 -0.5619299267
C 1.6335252196 3.2026880581 0.422867715
C 0.4056798165 4.0655062743 0.6659462303
S -1.3214169919 0.1144196311 -1.5508522237
P -2.0652754238 -0.2234381856 0.4267832269
S -1.3147073548 -1.6283527267 1.5719459875
O -2.3460787742 1.1748656464 1.1180839762
C -3.199419919 2.1653442699 0.5111106816
O -3.5729804369 -0.5844175818 0.0002173285
C -3.9078958215 -1.8476478774 -0.5804497331
H 6.4126699035 -1.9979816885 -0.2945904789
H 5.4018520804 -2.4639288075 -1.6721377024
H 5.3032101776 -0.8230233175 -1.0119880376
H 4.3494065815 -1.702147795 1.1018608826
H 4.4777301892 -3.3762749238 0.4730861231
H 0.4075369422 -1.769296941 -0.3230712982
H 1.1086419545 -1.8433275878 -1.9459997756
H 1.9577034012 2.7113499058 1.3443407564
H 2.4521559733 3.7776897501 -0.0090121094
H 0.0528213695 4.4876632502 -0.2710778678
H -0.3856996404 3.4669933638 1.1122098598
H 0.6644243702 4.8687431345 1.347738178
H -3.1061341638 3.045586124 1.1424859806
H -4.2268021245 1.8070307614 0.4957305919
H -2.8653326447 2.3792067159 -0.5047946276
H -4.9883904133 -1.9317819841 -0.4974354813
H -3.4194576346 -2.6532715849 -0.0294932708
H -3.5990411788 -1.8670684616 -1.6249756216
*
