! pbe def2-sv(p) def2/J RI DEFGRID1 loosescf d4 GCP(DFT/SV(P)) printgap
%output
    printlevel normal
end
* xyz 0 1
C 5.071912884 -1.0472303899 -1.8452310568
C 4.7673330435 -0.282848478 -0.5725057393
O 3.6302397745 0.5980381409 -0.7583338342
P 2.1726603024 0.2583316355 -0.2307916863
S 0.9975372775 1.7977592183 -0.5272896665
O 2.3507088448 -0.1988781018 1.2893643654
C 2.1933575986 0.6686086151 2.4310686341
C 1.4272673641 -0.0807187098 3.5033403586
S 1.7212504464 -1.6135335381 -1.0778009397
C -0.0913752645 -1.5658556262 -1.0677572196
S -0.8183170868 -1.0500229235 0.5099242369
P -2.2578465206 0.362038043 -0.2117434116
S -2.2265166909 0.7289363416 -2.1364196621
O -2.1250702632 1.7006194012 0.5955253548
C -1.7389918515 1.8681512167 1.9804641273
C -2.4635758698 0.9396410147 2.9301002336
O -3.635454454 -0.2003552089 0.3580564473
C -4.116227378 -1.548169087 0.2225573171
C -4.3491899182 -1.9500926563 -1.2197002463
H 5.1984827399 -0.354250984 -2.6725132479
H 5.9889505122 -1.6111417325 -1.7067110885
H 4.2634714343 -1.7348072908 -2.082751908
H 5.5879438817 0.3876621141 -0.3107929456
H 4.5610429768 -0.9609021905 0.2589974781
H 3.1949133232 0.9406520894 2.7728324312
H 1.6700851218 1.5769397166 2.1115304857
H 0.4532506864 -0.3822469875 3.1277847678
H 1.9764916952 -0.971078446 3.794025203
H 1.300085284 0.5639339369 4.3667652985
H -0.3986915121 -2.5874267627 -1.281039934
H -0.4453267186 -0.87700292 -1.8425055581
H -0.6563813623 1.7276410302 2.0338526741
H -1.9766298685 2.9147784249 2.1774210971
H -3.5385994304 1.0601721314 2.8260306853
H -2.2019522396 -0.0971906835 2.7228330159
H -2.1703225007 1.1812286929 3.9471825805
H -3.3976850267 -2.219789049 0.7018578835
H -5.0503610301 -1.543728465 0.7869589077
H -3.4101769391 -1.9549997442 -1.7706130544
H -4.7863030685 -2.9429175825 -1.2503266073
H -5.0202194318 -1.2453161576 -1.7044733795
*
