! pbe def2-sv(p) def2/J RI DEFGRID1 loosescf d4 GCP(DFT/SV(P)) printgap
%output
    printlevel normal
end
* xyz 0 1
C 3.8646304952 0.177095684 1.937146179
C 4.2088189465 -0.4708020821 0.6120712941
O 3.5597533951 0.1733480831 -0.5126246428
P 1.9968849008 0.1989027553 -0.7913468733
S 1.6954320287 0.6816949563 -2.6631757839
O 1.3437952686 1.1754016962 0.2928157904
C 1.4919136211 2.6012310283 0.1620078994
C 0.977551693 3.2316091596 1.4387846809
S 1.303129275 -1.6599945477 -0.1188488162
C -0.119693981 -1.8831803589 -1.2363283533
S -1.6871025417 -2.0386857385 -0.3578841476
P -1.9145171407 -0.0045794634 0.2360487041
S -1.5446506495 1.3448038056 -1.1323152828
O -1.0401667363 0.1546125645 1.5362679952
C -1.2695206891 -0.6593577555 2.7198998078
C 0.0624325551 -0.9087809422 3.3953350166
O -3.3860556748 0.0290641817 0.8407804149
C -4.5584107131 0.2741600267 0.0447910858
C -4.8324446288 -0.8430984261 -0.9409017562
H 4.4237273084 -0.3166821534 2.7257632661
H 4.1252120889 1.2327128744 1.9217015626
H 2.801002461 0.0757563285 2.1402415775
H 3.9278263683 -1.5269914195 0.6091704225
H 5.2695334599 -0.3697362726 0.3764385022
H 2.5475616492 2.8325559258 -0.0144506572
H 0.9113290648 2.9262835308 -0.7080939375
H -0.0575564555 2.936997862 1.5927138243
H 1.5699923335 2.9007427858 2.2868633172
H 1.035364321 4.3116280618 1.3522424957
H 0.0214220968 -2.8189729245 -1.7712112951
H -0.1548426086 -1.0364675142 -1.9282128953
H -1.9506663854 -0.0988848586 3.3622633485
H -1.7457343399 -1.5964574185 2.4176835003
H -0.1061369498 -1.4586937072 4.3155704945
H 0.7112815206 -1.4906622304 2.7453351847
H 0.5441594396 0.0374005326 3.6255286327
H -5.3562852515 0.363991967 0.7834115168
H -4.4263382851 1.2257175855 -0.4793527105
H -4.8369074112 -1.8043453097 -0.4332765302
H -5.7972265999 -0.67712201 -1.4094029041
H -4.0653561858 -0.856542181 -1.7136204901
*
