! pbe def2-sv(p) def2/J RI DEFGRID1 loosescf d4 GCP(DFT/SV(P)) printgap
%output
    printlevel normal
end
* xyz 0 1
C 5.6936940583 -0.3952900667 -1.0441051466
C 4.2429565289 -0.7700869331 -1.2693575566
O 3.4145958589 0.3249639586 -0.8020637315
P 2.0239192319 0.101919831 -0.0742181279
S 1.373520951 1.8225020902 0.5807272856
O 2.2302104481 -1.0354512598 1.0277856757
C 2.3697599385 -0.7248514098 2.4288381124
C 3.7561289549 -0.1960274122 2.7330120563
S 0.9609291701 -1.0318688629 -1.5133362478
C -0.2553551269 -1.8632130785 -0.4299899688
S -1.0146339729 -0.7976540545 0.8153493051
P -2.340882371 0.2648922125 -0.4802981498
S -1.5330334428 1.4425150808 -1.8232330315
O -3.3676285397 0.9614233146 0.5086936299
C -3.1463192071 2.2631825771 1.0769354466
C -2.1266716825 2.2225407115 2.1964734923
O -3.2102755436 -0.862016117 -1.1627379976
C -4.3913750594 -1.4874540396 -0.5975766408
C -4.0918146414 -2.3045092141 0.6415012386
H 6.3290135626 -1.1857686894 -1.43047727
H 5.9199676932 0.5335706048 -1.5599372934
H 5.8893356817 -0.2604243917 0.0161963672
H 3.9736631518 -1.6771029313 -0.7225596813
H 4.0251701152 -0.9082373245 -2.330805314
H 1.6063952803 0.0103462549 2.7004162897
H 2.1714965914 -1.6713460732 2.9327796026
H 3.9205744726 0.7306572146 2.1833052142
H 3.8401762543 0.0058298739 3.7959924253
H 4.5118589469 -0.9215111482 2.4430462252
H 0.2465827373 -2.6595829984 0.1135456231
H -1.0183902778 -2.256245893 -1.0997379196
H -2.8219209639 2.9426121672 0.2820173888
H -4.1315495869 2.5591157729 1.4408383726
H -1.1343581392 2.0153929435 1.7970578897
H -2.0998080401 3.1875739638 2.6918705769
H -2.3864972257 1.4525246917 2.9180228183
H -5.1191425923 -0.7040978641 -0.3808594512
H -4.7511742248 -2.1128929333 -1.4161758699
H -3.3292535064 -3.0510082797 0.4356477326
H -3.7465951526 -1.659886802 1.4462465347
H -5.0023162562 -2.8051365566 0.9562754037
*
