! pbe def2-sv(p) def2/J RI DEFGRID1 loosescf d4 GCP(DFT/SV(P)) printgap
%output
    printlevel normal
end
* xyz 0 1
C 5.4867892109 -0.7787811001 -1.2532062664
C 4.1193034216 -1.1082116126 -1.8134268549
O 3.1460668254 -1.3074970375 -0.7679374513
P 2.6358832175 -0.114334753 0.14557118
S 2.4849685674 1.6245205131 -0.7643002522
O 3.6520545984 -0.1426649522 1.3652383097
C 3.7813029759 0.9579271059 2.2823038175
C 2.5138127267 1.1749254486 3.0829079827
S 0.9165898114 -1.0590097948 0.9211006429
C -0.0387610603 -1.1188972724 -0.6164594943
S -0.7419064918 0.4960787764 -1.1064566775
P -2.7383904761 0.1632432342 -0.5012861846
S -3.9925199581 1.6471935797 -0.7407241282
O -2.6677536956 -0.430629366 0.9783616803
C -2.8234207352 0.4013781023 2.1384154443
C -1.5947290337 1.2501389977 2.3930476259
O -3.0262853315 -1.1495155787 -1.3499849871
C -4.3714146521 -1.5732974348 -1.6563373313
C -5.1187744061 -2.0293888147 -0.4208584213
H 6.2102518207 -0.7506403666 -2.0620322112
H 5.4613337573 0.1953595427 -0.7668582474
H 5.7843095702 -1.5284974237 -0.5248839011
H 4.1207157048 -2.0556905715 -2.3542427261
H 3.7667336582 -0.3035691167 -2.4672303952
H 4.6202831895 0.6726769191 2.9180879564
H 4.0316267442 1.8573341995 1.7107386392
H 2.2083895932 0.2491999953 3.5644548266
H 2.6859231118 1.9364653523 3.8366043774
H 1.7156332111 1.510167715 2.4207522919
H -0.8498230407 -1.8235067588 -0.4588878248
H 0.6107501315 -1.4411838159 -1.4262681692
H -3.7048029626 1.0351887247 1.9936567218
H -2.9980616664 -0.3048161358 2.9508890753
H -0.7190665194 0.6161080578 2.5074706696
H -1.4340113151 1.9309056599 1.5562321564
H -1.7390165732 1.8333212886 3.2966797361
H -4.8940604491 -0.7405035197 -2.1370970259
H -4.2306024849 -2.3858018982 -2.3704220855
H -6.0811377942 -2.4366493689 -0.7146404781
H -4.5493521776 -2.7897170467 0.1070745065
H -5.2820804714 -1.1833117928 0.2450868933
*
