! wb97x-v def2-tzvp def2/J RIJCOSX DEFGRID2 scfconv7 GCP(DFT/TZ) printgap
%output
    printlevel normal
end
%cpcm
    smd true
    smdsolvent "water"
end
* xyz 0 1
C -2.5843737054250973 0.6045140734396612 -0.0010888556824611244
C -1.232290699029481 -0.05629884914352592 0.00020076869645228746
C -1.151223855239371 -1.4545717339357236 -1.2951443963378801e-05
C 0.08065710471998841 -2.10000970304012 0.0004777082947145538
C 1.2561086980772984 -1.3580718241039433 0.0002878178902025969
C 1.1753600860705025 0.03230558889589336 5.286446159799858e-05
C -0.052942544019081814 0.7087226305291074 0.001296650290341071
C -0.04954048414167369 2.210677983184875 0.0011496539496079921
O 2.3127512378295916 0.8159153675653772 -0.002150351349138229
H -2.7260622380464166 1.2352667749142645 0.8833706155388619
H -2.7186538516439276 1.2470355084418872 -0.8781202262429069
H -3.3758418644670503 -0.14829156058623466 -0.009169772096616286
H -2.067449510041998 -2.0373150407864418 -0.000788052716776198
H 0.1293571497668831 -3.1845511915420617 0.0005011034058496602
H 2.229020254004284 -1.8422206002859962 -7.733385283256027e-05
H 0.5059796937791174 2.6020609781306234 0.8605245068264998
H 0.4433566396417041 2.602759727796155 -0.8958576898477875
H -1.0587442397103533 2.619878519678504 0.036934585555142445
H 3.0876802022722702 0.2368402356856065 -0.0013869021538743013
*
