! pbe def2-sv(p) def2/J RI DEFGRID1 loosescf d4 GCP(DFT/SV(P)) printgap
%output
    printlevel normal
end
* xyz 0 1
C 4.1903778837 -1.1216802479 -2.3536520445
C 4.2786488213 0.2648089674 -1.7505334597
O 3.5733793639 0.3591074356 -0.5003058417
P 1.9922413593 0.2165129202 -0.4013829541
S 1.0175535195 1.1124244542 -1.8384055329
O 1.6554027558 0.836169059 1.0069025823
C 2.3185569974 0.4652665055 2.2426543704
C 3.4322059609 1.4388163538 2.5646733674
S 1.7560684298 -1.8866590296 -0.153517574
C 0.0722621341 -1.9763550173 0.5096058079
S -1.2230993434 -1.445310055 -0.6489783271
P -2.0425157117 0.2008438104 0.4392992307
S -1.3133791049 0.5106856908 2.2256146637
O -3.6088857187 -0.0659174805 0.3264855207
C -4.2717146314 -1.3014473192 0.6522748836
C -4.0250184058 -1.7433186555 2.0796143879
O -1.8949230726 1.499422426 -0.4345388206
C -2.4005411306 1.6082093496 -1.7874595734
C -3.6963338941 2.3908402425 -1.8050550772
H 4.8314992001 -1.1740423798 -3.2276830689
H 4.501461976 -1.8712693486 -1.6302330493
H 3.1648362341 -1.3298629083 -2.6565717249
H 3.8644472275 1.0104291263 -2.4364037652
H 5.3048350024 0.5281276309 -1.4906186467
H 1.5243658946 0.5005312002 2.9927480194
H 2.7014488028 -0.5546778422 2.1486429887
H 3.8560959768 1.1811295848 3.5301589125
H 4.2077776303 1.3900328826 1.8048259639
H 3.039873806 2.4514457607 2.6039504778
H -0.0121577129 -1.3675819362 1.4156744675
H -0.0878690419 -3.0303901359 0.7234612183
H -5.3262088799 -1.0770047337 0.4825995861
H -3.9373127586 -2.0661614962 -0.0545470882
H -4.6250607995 -2.6222357622 2.2918222084
H -2.9735062412 -1.9858139009 2.2246758721
H -4.2903128268 -0.9491581536 2.7733882842
H -1.6081381054 2.1194556354 -2.3386693699
H -2.5314526963 0.6043298612 -2.2012101523
H -3.5416472684 3.3719274947 -1.3645758486
H -4.0248130521 2.5057495328 -2.8330853763
H -4.4604075234 1.867000332 -1.2364896238
*
