! pbe def2-sv(p) def2/J RI DEFGRID1 loosescf d4 GCP(DFT/SV(P)) printgap
%output
    printlevel normal
end
* xyz 0 1
C 4.2155408911 -1.6727527283 -1.7684851287
C 4.6733907981 -1.0587411531 -0.4610946554
O 3.580938835 -0.8164235761 0.4415160842
P 2.4627975488 0.2749725781 0.1541262517
S 3.1159050071 1.9279343324 -0.66489819
O 1.8597864363 0.5545160261 1.5821153115
C 1.0336420713 -0.3251370789 2.3819880926
C 1.644863294 -1.694864759 2.5817131126
S 0.9591848676 -0.7755913036 -0.9465785715
C 0.1674994951 0.6894126946 -1.6431149267
S -0.838761512 1.5954313235 -0.4395772843
P -2.4324956507 0.1961164086 -0.4209444091
S -2.9422469944 -0.5908176513 -2.135132829
O -3.6419144412 0.9816839245 0.2298859
C -3.5537355668 1.9889978514 1.263882395
C -3.0056706324 1.4391335335 2.5637799463
O -1.8923600413 -0.856119522 0.6566123186
C -2.1822588856 -2.2633025516 0.574245773
C -3.586103118 -2.5533125421 1.0635663599
H 3.6043641443 -2.5522140636 -1.5824251822
H 3.6298699669 -0.9506508237 -2.3353855182
H 5.0840586696 -1.9551110841 -2.3547902363
H 5.1895646307 -0.1107390609 -0.6423716426
H 5.3240237416 -1.7352300561 0.0948163218
H 0.9388435045 0.2167161321 3.3245144527
H 0.0553670244 -0.403398182 1.9007532452
H 1.6973963027 -2.226205966 1.6332751664
H 2.64857697 -1.6034766943 2.9883421015
H 1.0276175297 -2.2600209101 3.2736887041
H -0.4682282335 0.3532176744 -2.4629911574
H 0.9357826615 1.3829110989 -1.9882821657
H -2.9320642401 2.8086971312 0.8936022522
H -4.5854452746 2.3278579347 1.3712247524
H -3.0470086605 2.2155855251 3.3213211619
H -3.5956162363 0.5872846514 2.8911492191
H -1.9715111514 1.128132142 2.4330834112
H -2.0578664149 -2.5878435801 -0.4634698993
H -1.424244693 -2.7343976052 1.2012205163
H -4.3060188972 -2.0271008518 0.4368597949
H -3.7775918637 -3.6198037 1.0027428336
H -3.7057362836 -2.2233172171 2.091886739
*
