! pbe def2-sv(p) def2/J RI DEFGRID1 loosescf d4 GCP(DFT/SV(P)) printgap
%output
    printlevel normal
end
* xyz 0 1
C 1.5953407223 -2.3603968047 1.3419861123
C 3.0564181777 -2.0181762283 1.1347368171
O 3.2696713328 -0.6002452728 1.0203225991
P 2.8420309765 0.2297606962 -0.2684745098
S 3.1100409738 -0.6913939541 -1.9722261729
O 3.7337276904 1.5241639343 -0.1636166994
C 3.6659265699 2.517463725 0.8871168675
C 4.4495334023 2.0976280888 2.1134746702
S 0.856453841 0.9514430561 0.1271320553
C 0.0154455791 0.3436058846 -1.3542493055
S -1.0998207841 -1.0360061621 -1.0095416957
P -2.6797555142 0.1547083234 -0.2087797118
S -3.0453691489 1.8041138066 -1.1941342671
O -2.3371759025 0.4307811042 1.2978384527
C -2.0448486333 -0.6214369759 2.2572948131
C -1.1143156917 -0.0453001199 3.3038840297
O -3.8751762927 -0.8850888663 -0.1038130195
C -4.5570969366 -1.3711748646 -1.2791055084
C -5.8354857673 -2.0452872664 -0.8246517584
H 1.1910888234 -1.7941758576 2.1768412271
H 1.0250183692 -2.1320800009 0.442234633
H 1.5027395891 -3.4216299 1.5489831263
H 3.4428252919 -2.5013055009 0.231854784
H 3.6623954355 -2.3041526028 1.9956697468
H 4.095223979 3.4088065679 0.4260117266
H 2.6150616983 2.6981381001 1.1308529114
H 4.456484575 2.9183156163 2.8241250834
H 3.9947925095 1.2267799597 2.5766335712
H 5.4718841202 1.8548902529 1.8365898121
H 0.7626980879 -0.0130078092 -2.0672548754
H -0.572040217 1.1649274872 -1.7670099434
H -2.9947477219 -0.9392094466 2.6899378377
H -1.5881767574 -1.4626546435 1.7275249351
H -1.5871768765 0.798985177 3.7968123945
H -0.8868729583 -0.8104881076 4.0392516705
H -0.1956519503 0.3005204706 2.8363109523
H -4.7609523009 -0.522264252 -1.9398408839
H -3.8940634038 -2.07293782 -1.792278552
H -5.6031734219 -2.8653295446 -0.1517139811
H -6.4693271312 -1.3314491867 -0.3061454525
H -6.3628799398 -2.4290949701 -1.6916151499
*
