! pbe def2-sv(p) def2/J RI DEFGRID1 loosescf d4 GCP(DFT/SV(P)) printgap
%output
    printlevel normal
end
* xyz 0 1
C 4.1030508009 -1.2829931626 -2.6803060402
C 4.2542835164 0.0521862343 -1.9814787849
O 3.671891888 0.0418120019 -0.6653447556
P 2.1038468791 -0.0667551113 -0.4304267858
S 1.0401794079 0.9428177485 -1.7416753561
O 1.9880130381 0.339267937 1.0948492997
C 2.4117428159 1.6299481135 1.5913031587
C 2.1534319563 1.6475442355 3.0823231443
S 1.6799959865 -2.1146245648 -0.2804769189
C -0.1027162505 -2.0374154839 -0.5964077989
S -1.0862080198 -1.63438705 0.8851232
P -1.8886071335 0.2844646749 0.5045112797
S -0.991062987 1.9397305858 1.0220664183
O -3.2581775493 0.2289163303 1.3045831455
C -4.2446273539 -0.8180857332 1.1417314862
C -4.2721984537 -1.7079474937 2.3681856459
O -2.2294645646 0.0990596163 -1.048112215
C -2.4707653385 1.2252720275 -1.9102048307
C -3.7990919419 1.8846837118 -1.6045219505
H 4.6641283039 -1.2661614586 -3.6090709083
H 4.4733245249 -2.084997422 -2.0469632461
H 3.0535111636 -1.4679659052 -2.9042283396
H 3.777956323 0.8482374476 -2.5627654505
H 5.3012792306 0.2988813397 -1.8006218611
H 3.472727418 1.7514211681 1.3608580552
H 1.8329606304 2.4056471337 1.0799264219
H 2.6693233674 0.8190380453 3.5588802718
H 2.5096892213 2.5861828272 3.4934331779
H 1.0862710036 1.5589591536 3.2694992845
H -0.4014301498 -3.0352766447 -0.9053734357
H -0.3011713033 -1.2980939162 -1.3729588239
H -5.1927547647 -0.2918690634 1.0161394765
H -4.0167715345 -1.3899159822 0.2386903741
H -3.3224059725 -2.2255049795 2.4827455449
H -4.4527948546 -1.10825778 3.2558766798
H -5.0673545545 -2.4385426757 2.259625579
H -1.6451948624 1.9354881875 -1.7974223138
H -2.4443464495 0.7996608336 -2.9144634399
H -3.9629412901 2.6985828428 -2.303606238
H -4.6082861625 1.1641955467 -1.6922966537
H -3.7855583049 2.2864027804 -0.591442203
*
