! r2scan-3c def2/J RI DEFGRID2 scfconv6 printgap
%output
    printlevel normal
end
* xyz 0 1
C 0.6974611943 -0.5478702922 -0.2068079598
C -0.5736092722 0.1581166874 0.3098558532
F -0.4899091557 0.2869876077 1.6482188875
Cl -1.9972521578 -0.827455977 -0.0758541825
Cl -0.6940465228 1.7624835204 -0.4160866788
F 0.7842810611 -1.783581112 0.3053627873
F 0.6406189677 -0.6904957303 -1.5352032354
Cl 2.1483003397 0.3690232292 0.2328310689
*
