! pbe def2-sv(p) def2/J RI DEFGRID1 loosescf d4 GCP(DFT/SV(P)) printgap
%output
    printlevel normal
end
* xyz 0 1
C 2.9455612452 -0.3100229904 -2.661618125
C 1.7101334369 0.3031352338 -2.0394209378
O 1.2244798229 -0.5008492599 -0.9499961183
P 1.979572991 -0.5458497076 0.4529864827
S 3.0107376663 1.0724296496 0.878549498
O 2.8071932081 -1.8902296473 0.2750198526
C 3.3281866598 -2.7089096657 1.3396222707
C 4.1214773982 -1.9219221912 2.3619135693
S 0.4482199984 -1.1401691403 1.7694108381
C -0.3674293234 0.4654088108 2.0551267792
S -0.4452065867 1.5617430471 0.6141973513
P -1.9228547032 0.6044926512 -0.5658597196
S -1.9812123164 1.132734611 -2.4496473377
O -3.2930844931 0.7948358865 0.2323482004
C -4.1608098553 1.9152110604 0.0040750145
C -3.5596455946 3.2131890494 0.5052436708
O -1.6096469731 -0.9127569288 -0.2524284977
C -1.9825353043 -1.9750672625 -1.1516675833
C -3.4813171781 -2.1857846158 -1.1748937837
H 2.7390346272 -1.3282742979 -2.9799646956
H 3.2519907643 0.2849956267 -3.5160096863
H 3.7509451765 -0.326047917 -1.927785035
H 0.8743838694 0.3482022766 -2.7412976102
H 1.9201769288 1.3114885929 -1.6642815069
H 2.4865462278 -3.2208950412 1.8145542215
H 3.9568212564 -3.4337884004 0.8190473196
H 4.9166027891 -1.3604832323 1.8769706891
H 3.4722615195 -1.2186515079 2.8816012224
H 4.5536524781 -2.6061242009 3.0850059183
H 0.1981203386 1.0221948671 2.8001231754
H -1.3713534652 0.2371073054 2.4053802711
H -4.3670113976 1.9796992548 -1.069211354
H -5.0734910519 1.6579580054 0.5433635817
H -3.2943262543 3.1312740509 1.5560748821
H -2.6613428632 3.4512847526 -0.0647116633
H -4.2793514488 4.015400303 0.3776557218
H -1.6074179878 -1.7322948491 -2.150925899
H -1.452438346 -2.8440581041 -0.758574558
H -3.7125505142 -3.0545483434 -1.7831612282
H -3.8545226039 -2.3389266198 -0.1658207743
H -3.9700028434 -1.3122731827 -1.6048034729
*
