! pbe def2-sv(p) def2/J RI DEFGRID1 loosescf d4 GCP(DFT/SV(P)) printgap
%output
    printlevel normal
end
* xyz 0 1
C 0.857858326 1.3838756752 -0.6056185292
C 1.5937614167 0.1636329187 -0.0379962541
H 2.5654640549 0.0711762218 -0.5326565734
C 0.7742568013 -1.1116838388 -0.3340126674
H 1.237842961 -1.9386052865 0.2245543326
C -0.6806457756 -0.9239034363 0.1510549531
H -1.3050284514 -1.7527803203 -0.2107901178
C -1.2545255501 0.3771905949 -0.4503762899
H -1.2785741278 0.279825898 -1.5480581308
O -0.4546499275 1.4808680085 -0.0867013664
O -2.5480372119 0.6115827104 -0.0381685158
O -0.7645171399 -0.8057797969 1.55205412
O 0.8246228558 -1.3439511432 -1.7199944275
O 1.85880219 0.2968038218 1.3332792964
H 0.8278652059 1.3081199227 -1.6997236849
H 1.3602113564 2.3025405266 -0.3028545579
H -2.551261119 0.7034143556 0.9295219389
H -0.6016884093 -1.6635443773 1.9685183088
H 0.5523898885 -2.251726024 -1.9169772696
H 1.0155359499 0.4608199881 1.7892797825
*
