! pbe def2-sv(p) def2/J RI DEFGRID1 loosescf d4 GCP(DFT/SV(P)) printgap
%output
    printlevel normal
end
* xyz 0 1
C 0.8213242625 -2.8868955172 1.3329231737
C 2.189363594 -2.3778101033 1.7392319188
O 2.4052938814 -1.0192711438 1.3149808499
P 2.6793821619 -0.6555693306 -0.2047066226
S 3.6528626087 -1.9816570208 -1.2633920413
O 3.4381966062 0.7127974496 0.085517738
C 4.3147225769 1.3072967704 -0.8862565993
C 3.5583624453 1.8687347002 -2.0744653419
S 0.7875481144 -0.0465769194 -0.9784187603
C 0.3253048662 1.0701892573 0.3853917126
S -0.9951635127 0.3978775117 1.4176589302
P -2.5664666755 0.7929090399 0.0313017532
S -2.4696941182 2.5176935057 -0.8839672648
O -3.8907176113 0.5028126763 0.8630886158
C -4.5515379184 1.5047242349 1.6582976379
C -3.6990209149 1.9775121233 2.8176325114
O -2.5469029212 -0.4098318165 -0.9859592668
C -2.6769027392 -1.7972091998 -0.582038581
C -2.0195238375 -2.6538693095 -1.6435428883
H 0.7477047272 -2.9194820416 0.2462174763
H 0.6798320793 -3.8886581827 1.7253717295
H 0.047527238 -2.232255637 1.7267327293
H 2.9776081737 -3.0051146853 1.3106373665
H 2.2969099694 -2.3335688802 2.8237069034
H 4.8302163941 2.0917248975 -0.330135782
H 5.0343475172 0.550471862 -1.2142609281
H 3.0795609728 1.0613117184 -2.6280983933
H 2.7954203979 2.5709070443 -1.7467734098
H 4.2539892461 2.3797642654 -2.7323646215
H -0.0281784063 2.0007898329 -0.0612150473
H 1.1896030766 1.2345110407 1.0241550617
H -4.8134811748 2.3433666942 1.0062314561
H -5.4578140805 1.0037926867 2.001565048
H -3.3439404281 1.1298300392 3.3983131025
H -2.8409175543 2.5354355891 2.4459375321
H -4.2906310694 2.6282999756 3.4535046388
H -2.1972137562 -1.9262985244 0.3924943137
H -3.7424819671 -2.0145386777 -0.4900322916
H -2.0974515055 -3.698179787 -1.3592100882
H -2.5087576509 -2.5019559646 -2.6011158652
H -0.971328446 -2.3841105153 -1.7484240391
*
