! pbe def2-sv(p) def2/J RI DEFGRID1 loosescf d4 GCP(DFT/SV(P)) printgap
%output
    printlevel normal
end
* xyz 0 1
C 5.218732954 -1.8226481227 0.9418642352
C 4.6006385363 -1.142017901 -0.2631421223
O 3.1788081314 -1.3781002171 -0.2307220347
C 2.4503512308 -0.851935916 -1.1884935822
O 2.895192812 -0.1875644395 -2.0999978619
C 0.9793698314 -1.193458066 -1.0292491278
C 0.1426238066 0.0189883604 -1.4196301868
H 0.4998822758 0.3966112739 -2.3853310305
C 0.2501530109 1.1502161525 -0.4197819571
O -0.6830283959 1.8864540538 -0.1572804345
O 1.4418574901 1.2494251769 0.0956216202
C 1.6627030326 2.2714523255 1.0933853905
C 3.1248208341 2.2297990904 1.486089665
S -1.6207400595 -0.3600899501 -1.678340103
P -2.3870968381 -0.1248955513 0.2856586481
S -1.179455177 -0.4196743419 1.811397947
O -3.3485691596 1.1328101496 0.3280901364
C -3.1697152423 2.3028255133 1.1300681288
O -3.5774342722 -1.1887814307 0.2356164744
C -3.3114225795 -2.5944204285 0.1752613402
H 5.0330056397 -2.8916358098 0.9024963039
H 6.2887578972 -1.6442189137 0.9454087562
H 4.7862641136 -1.4281729516 1.8564632964
H 4.9944253347 -1.5410236487 -1.2029955754
H 4.7675593006 -0.0607746107 -0.2525677503
H 0.790004988 -1.5033474924 -0.0009760713
H 0.7448420667 -2.0184930658 -1.7042883065
H 1.3770803156 3.2369904517 0.6660705016
H 1.0055949285 2.0526490979 1.9411341877
H 3.3691423385 1.2546436988 1.896804325
H 3.7487696112 2.4171323438 0.6166821421
H 3.314892247 2.9914058296 2.2346915168
H -2.5429891241 2.0808452099 1.9957062105
H -4.1663377236 2.599494268 1.4490927914
H -2.7018014487 3.0812349058 0.530236529
H -2.9179684067 -2.8604555442 -0.8059014035
H -4.2695514252 -3.0783244495 0.3462733721
H -2.5997488843 -2.8751400316 0.9540025088
*
