! pbe def2-sv(p) def2/J RI DEFGRID1 loosescf d4 GCP(DFT/SV(P)) printgap
%output
    printlevel normal
end
* xyz 0 1
C 0.7595777707 0.2836679962 3.5112071926
C 1.8856867445 0.4720936985 2.5162414184
O 1.9783391982 -0.7390945648 1.7210985184
P 2.583704867 -0.7753112899 0.2685008062
S 2.6142688998 -2.5924066599 -0.4530075978
O 3.9928969245 -0.0681132159 0.474479917
C 5.0736370903 -0.1839035146 -0.4689076762
C 4.7418625858 0.4430244399 -1.8073779167
S 1.4550198492 0.6461625819 -0.8539857996
C 0.050781073 -0.448302567 -1.1686073264
S -1.0876048875 -0.5623031042 0.2337136195
P -2.7426204515 0.5572651959 -0.5518203565
S -2.5426884328 1.2599775819 -2.3641053201
O -3.091562985 1.6312240954 0.5725320682
C -2.5138962791 2.9485173736 0.5988021465
C -1.0388489093 2.9220107959 0.9429474832
O -3.9683519659 -0.4248093369 -0.4313276193
C -4.3359368724 -1.0954843457 0.803346252
C -4.1059087265 -2.5872835982 0.6676044444
H 0.9656338065 -0.5717899928 4.147684928
H 0.6708873222 1.1753338476 4.1235970668
H -0.1750093263 0.1035228462 2.9857060254
H 2.8467623722 0.6130401727 3.013736459
H 1.6984604047 1.3171869122 1.8469888506
H 5.9008622862 0.3299869062 0.0228450501
H 5.3127602749 -1.2447977373 -0.5899220128
H 3.9635564977 -0.1323492501 -2.306840139
H 4.3923202354 1.4637023547 -1.6728327692
H 5.6296267677 0.4449877256 -2.4316400856
H 0.4331188188 -1.449337567 -1.3728464211
H -0.4880484372 -0.0431336505 -2.0282557023
H -2.674544127 3.4158632167 -0.3775960534
H -3.0955002646 3.4701950236 1.360315557
H -0.6849290845 3.9393951858 1.0746889593
H -0.8764907221 2.3627099255 1.8606762478
H -0.4729431815 2.4600725233 0.1343351808
H -3.755976587 -0.6751759625 1.6271562544
H -5.3935789684 -0.8681336423 0.9449656754
H -3.0463096745 -2.8016946842 0.5500024256
H -4.4707751891 -3.0856818388 1.5600158646
H -4.638919285 -2.9678297246 -0.1992483873
*
