! pbe def2-sv(p) def2/J RI DEFGRID1 loosescf d4 GCP(DFT/SV(P)) printgap
%output
    printlevel normal
end
* xyz 0 1
C 1.2149360016 -1.4569227851 3.1929024334
C 2.0588943385 -0.2461614802 2.8490734889
O 1.660893177 0.3009557231 1.5670918185
P 2.440384949 -0.0397682882 0.2316399206
S 3.13629835 -1.8688045008 0.0557947287
O 3.5634403648 1.0867234065 0.2357934367
C 4.7261491146 1.0184474743 -0.6074530289
C 4.3777566382 1.2018621553 -2.0704456967
S 1.017459144 0.5920775385 -1.1914716837
C 0.0747555257 -0.9596496804 -1.208563367
S -1.0591310163 -1.1051804658 0.1832197537
P -2.465039948 0.3463982934 -0.5149425728
S -2.6725888364 0.3760791124 -2.463956527
O -2.0233512938 1.7817722173 -0.0335752547
C -2.1880675973 2.3413839248 1.2917292029
C -1.4539363336 1.555007132 2.3570474544
O -3.7486473831 0.0857466036 0.3823774031
C -4.3575665568 -1.1999974816 0.607306737
C -4.7448995031 -1.8993611946 -0.6782871843
H 0.1601510226 -1.2003484969 3.1642624771
H 1.3959933653 -2.2561822417 2.4774960496
H 1.4778004177 -1.8042195489 4.186737939
H 3.120534287 -0.5047627175 2.8152871208
H 1.9021100663 0.5680612834 3.5580015094
H 5.3646606722 1.8229788619 -0.2402813878
H 5.2136491299 0.0513131016 -0.4468754669
H 5.2907521929 1.2575469602 -2.6545221317
H 3.78501127 0.3577357004 -2.421447451
H 3.802098358 2.1134975155 -2.2109582554
H 0.7646046712 -1.8028307059 -1.1564402873
H -0.4977394373 -0.9660601509 -2.1373813697
H -1.7815249786 3.3485266013 1.1854204267
H -3.2570744882 2.391979892 1.5071097366
H -1.8975077477 0.5678295417 2.4723248518
H -0.4064865378 1.4421066253 2.087446988
H -1.5247494098 2.0871412291 3.300687799
H -3.658909964 -1.8127395627 1.1836426798
H -5.2344096422 -0.9641296419 1.2130157264
H -5.38095075 -1.2577815574 -1.2834505887
H -3.8552793455 -2.1427229764 -1.2572086601
H -5.27643587 -2.8159792424 -0.4438914635
*
