! pbe def2-sv(p) def2/J RI DEFGRID1 loosescf d4 GCP(DFT/SV(P)) printgap
%output
    printlevel normal
end
* xyz 0 1
C 2.2734099037 0.953665138 -3.0417538159
C 2.0486165004 -0.4550030009 -2.5289476762
O 2.8211396029 -0.7109904601 -1.3459896002
P 2.4019215451 -0.3675288656 0.138969733
S 2.2947590079 1.5073151581 0.7210367262
O 3.6011216115 -1.1739347112 0.7896617838
C 4.1130399385 -0.8876768432 2.0997765968
C 3.1376554259 -1.2882156764 3.1893376784
S 0.6661269345 -1.554540969 0.451382932
C -0.2637010707 -0.4532970183 1.5811810381
S -2.0523825722 -0.6166032994 1.4086763822
P -2.3975182578 0.474191357 -0.3908142379
S -0.81919645 1.2546785146 -1.2657730541
O -3.5930936841 1.4463626998 -0.0325947422
C -3.6638414303 2.2650107707 1.1477787302
C -2.5003011484 3.2303119161 1.2586535068
O -3.2560699798 -0.4627506724 -1.3341999164
C -2.6724273374 -1.3397978925 -2.3097300495
C -2.2912968202 -2.6749184552 -1.6994195012
H 1.7664359102 1.0746714057 -3.9934944782
H 1.8664587654 1.6782034372 -2.3381501796
H 3.3360692595 1.1418204758 -3.1678372242
H 2.4038017721 -1.2001301567 -3.2433530026
H 0.9887031208 -0.6230970196 -2.3183447742
H 5.0354083655 -1.467737925 2.1512690577
H 4.3417658756 0.1811887406 2.1626513855
H 2.2745498111 -0.6240764466 3.1691716035
H 2.8068765213 -2.313094318 3.0401893799
H 3.6224215991 -1.2029620548 4.1565846484
H 0.0534924383 0.5730214672 1.377117013
H -0.0523306899 -0.7398237878 2.6083822439
H -4.6096207083 2.7974145324 1.0333674929
H -3.7116942477 1.6101814451 2.0226186733
H -1.5634162862 2.6882619792 1.3865771174
H -2.422327851 3.835072206 0.3579504246
H -2.6482077832 3.8802766924 2.1150605046
H -3.4510767731 -1.4566471281 -3.0654329382
H -1.8025360076 -0.8443623184 -2.7566438745
H -3.1462567317 -3.1046847581 -1.1847102369
H -1.9691578761 -3.3489796574 -2.4865306827
H -1.4775521615 -2.5540613333 -0.9858247222
*
