! r2scan-3c def2/J RI DEFGRID2 scfconv6 printgap
%output
    printlevel normal
end
* xyz 0 1
C 5.3194420164 -2.0132958604 -1.6199489531
C 4.2158400687 -0.9751404731 -1.6396061709
O 3.2876832672 -1.294520115 -0.5830357904
P 2.2538529679 -0.2222296587 -0.0357511532
S 3.0180823674 1.5300066683 0.4162596354
O 1.5612660524 -1.0164832693 1.1461243078
C 2.0081936413 -0.8891605848 2.5127209101
C 3.3715327322 -1.5160504402 2.7106489327
S 0.7283050206 -0.2297770715 -1.4945123983
C -0.0715575208 1.309910231 -0.9609380643
S -0.840219423 1.1802702889 0.6732618885
P -2.6914694774 0.2795084034 0.0934218525
S -3.1539881932 0.4502074834 -1.8091576936
O -3.7622373102 0.874581032 1.0913514235
C -4.5348283771 2.0430867466 0.7651113122
C -3.6914311563 3.302684361 0.7700420619
O -2.6844028231 -1.1629656441 0.7467352149
C -1.7099611996 -2.1918674179 0.5086394391
C -1.8482583949 -2.8116508792 -0.8682513884
H 4.896165527 -3.0048789415 -1.7503267654
H 6.0140003497 -1.8090576317 -2.4281431912
H 5.8513405659 -1.9785506021 -0.6734606304
H 3.6714997847 -0.9887718532 -2.587728155
H 4.608325413 0.0327783442 -1.4667539636
H 2.0247350988 0.1739861528 2.7733809674
H 1.2362142941 -1.3987679226 3.090641245
H 3.6347359856 -1.48406849 3.7632585055
H 3.363855154 -2.5472795372 2.3678145916
H 4.1167171382 -0.9609137492 2.1419544824
H -0.8344670373 1.5351731881 -1.7075745618
H 0.6768773806 2.0986229285 -0.8950083363
H -4.9983361766 1.8938400505 -0.2156135276
H -5.3044697889 2.0714115604 1.5375186519
H -3.1452425068 3.3875710444 1.7061203742
H -2.977907445 3.2771594941 -0.0524982117
H -4.3359879382 4.1673084853 0.6485520435
H -0.705435695 -1.7809072353 0.6519924801
H -1.9153399355 -2.923597288 1.2925498438
H -1.6106670391 -2.0839731236 -1.642301066
H -1.1612299862 -3.647491982 -0.9532643192
H -2.8657470183 -3.1624432819 -1.0203153883
*
