! r2scan-3c def2/J RI DEFGRID2 scfconv6 printgap
%output
    printlevel normal
end
* xyz 0 1
C 3.7256079411 -1.2645113495 -2.6567035427
C 4.0551139741 0.0186477876 -1.9216093964
O 3.6463000525 -0.0320595661 -0.54512391
P 2.1185534895 -0.0506710529 -0.1082472192
S 0.9804860579 1.1275567103 -1.19452454
O 2.1966842345 0.2698879681 1.4394039689
C 2.1755884086 1.6119557122 1.9637128145
C 3.4030434782 2.3984396674 1.5576778125
S 1.713183641 -2.1155547102 0.0157274248
C 0.059388682 -2.1108592999 0.7543463033
S -1.2998370638 -1.9279538468 -0.4560329719
P -2.1205899863 -0.0857065109 0.1416704867
S -1.2874584729 0.799335447 1.6869805837
O -3.6746704123 -0.3952393347 0.3412464767
C -4.1836417562 -1.0870262716 1.4985768898
C -4.742604969 -0.1041312209 2.5093293085
O -2.1741046372 0.6949086831 -1.2241164786
C -2.5661277973 2.0862058829 -1.2896431083
C -2.1335593183 2.6231780213 -2.6369044471
H 4.1309648261 -2.1202661615 -2.1227850325
H 2.6447793348 -1.3815014999 -2.7330497404
H 4.1468286971 -1.2269128021 -3.6561871721
H 3.5620395676 0.8722890509 -2.3986664252
H 5.1309434513 0.1906071551 -1.8700804625
H 1.2607787425 2.1052361702 1.6194464367
H 2.1201656638 1.4657224035 3.0432767178
H 3.3973770984 3.3580933399 2.0648974661
H 4.3031206068 1.8503729469 1.8236188083
H 3.3962369764 2.566313164 0.481280445
H -0.0121569127 -1.3059939 1.4912371432
H -0.0544505186 -3.0869640541 1.2176996124
H -4.9623847029 -1.7453637815 1.1094086902
H -3.3846993547 -1.6898261925 1.9401148387
H -5.1697935119 -0.6527228675 3.3424028617
H -3.9519685835 0.5450432453 2.8793036072
H -5.5124549174 0.5080577341 2.0483045037
H -3.6499650497 2.1380393412 -1.1594818606
H -2.0761856372 2.6238296826 -0.4705220031
H -1.0539463618 2.5353928143 -2.7344914089
H -2.6051718766 2.0535526132 -3.43194525
H -2.420106716 3.6666991415 -2.7146593139
*
