! pbe def2-sv(p) def2/J RI DEFGRID1 loosescf d4 GCP(DFT/SV(P)) printgap
%output
    printlevel normal
end
* xyz 0 1
C 3.0776335951 -1.4662222089 -2.2522024273
C 1.6579384968 -0.9566577729 -2.1388392271
O 1.2393623597 -0.8723237981 -0.7623516439
P 1.8705852952 0.1838549395 0.2311803814
S 2.6155961664 1.8332115755 -0.5109700969
O 2.8894036148 -0.7697416834 1.0096265938
C 3.7476471571 -0.2666298043 2.0501280397
C 5.1171640158 0.0802154926 1.4993411528
S 0.3311293797 0.4652606462 1.6562971676
C -0.2678155652 -1.2354907119 1.8082169903
S -1.3435176644 -1.8078546476 0.4400525687
P -2.121744713 -0.0037894933 -0.3080706123
S -1.0568365756 1.2432304638 -1.4078158206
O -2.7511671164 0.582746968 1.0171452714
C -3.072964561 1.9779532975 1.2115447127
C -2.7958900139 2.3326807351 2.6581686456
O -3.4200292976 -0.4975150208 -1.0870379103
C -3.4099404795 -0.845060133 -2.4808427479
C -2.6709130701 -2.144762658 -2.7261109542
H 3.7598946938 -0.7469557729 -1.8002245779
H 3.174922491 -2.418916353 -1.7384005344
H 3.333719698 -1.5877434256 -3.2998825373
H 0.9400137546 -1.6447780547 -2.5885052353
H 1.552403658 0.0331305004 -2.5953989469
H 3.2795968812 0.6089432778 2.5120525158
H 3.8077974811 -1.0766727503 2.779582462
H 5.0352769908 0.8866219476 0.773756925
H 5.7596380197 0.4006062327 2.3130032151
H 5.5550164636 -0.7874401582 1.0141402183
H -0.8435334853 -1.2650593597 2.7303101031
H 0.5766843776 -1.921088238 1.8412779372
H -2.4642611963 2.5797979948 0.5273237417
H -4.1280796613 2.1054134342 0.9599566077
H -3.0691493687 3.3691278972 2.8271261644
H -3.3792934139 1.6934994424 3.314187479
H -1.7395327816 2.1991946592 2.8795759354
H -4.465911528 -0.9229651572 -2.7424556111
H -2.9469273315 -0.0238863464 -3.0386848352
H -1.6202876184 -2.0231820656 -2.4623763237
H -3.0917240814 -2.9395530431 -2.115736823
H -2.7450628633 -2.4121522858 -3.7752202855
*
