! r2scan-3c def2/J RI DEFGRID2 scfconv6 printgap
%output
    printlevel normal
end
%cpcm
    smd true
    smdsolvent "water"
end
* xyz 0 1
C 2.6745354883 -0.3590087595 3.3646203675
C 1.4050027924 -0.6851522073 2.6066815406
O 1.2921312007 0.0969939468 1.4021798396
P 2.2080819044 -0.1527070559 0.1348023155
S 2.8916171417 -1.9757323203 -0.1157812587
O 3.3180721432 0.9664565741 0.3312500366
C 4.5562081471 0.9655858798 -0.401317717
C 4.3490154277 1.2508242555 -1.8747887838
S 0.9490260846 0.6259078762 -1.3737733042
C 0.090227876 -0.9273286355 -1.7511474649
S -0.8387979139 -1.5917638642 -0.3434979244
P -2.1624541647 0.052913315 -0.1271954677
S -2.7353380122 0.8943820448 -1.8058005205
O -1.4172812955 0.9913039582 0.9025980618
C -1.3883278477 2.4252398795 0.7785279673
C -2.6668321396 3.0339052848 1.3147976749
O -3.2811597743 -0.538999045 0.8297594634
C -4.1733019191 -1.6045407556 0.4464849988
C -5.4108718131 -1.0683746312 -0.2470873173
H 2.6828439938 -0.9018930324 4.3045601999
H 3.5412979538 -0.6568354917 2.7754647231
H 2.732500284 0.7084799555 3.5600660063
H 0.5092133854 -0.4245504203 3.172607537
H 1.3740056122 -1.7460503735 2.3361323946
H 5.146173861 1.7456189117 0.0817148765
H 5.0380975935 -0.0076068929 -0.262988977
H 5.3142421849 1.3576464162 -2.3592937989
H 3.8089382273 0.4281272939 -2.3417459468
H 3.7745234012 2.1643507511 -2.0065997173
H 0.8159593862 -1.6912823597 -2.0275309779
H -0.5931427074 -0.7082830397 -2.5711018863
H -0.5130950176 2.7274102392 1.3557140985
H -1.2423420312 2.6890201482 -0.2745598592
H -2.5993159631 4.1161649032 1.2699083617
H -3.5092352029 2.7036817367 0.7082878146
H -2.8299343299 2.7206002983 2.3422702266
H -3.6361040557 -2.310332424 -0.1940480668
H -4.4273594586 -2.0921427197 1.3896832934
H -5.9210325822 -0.3566432065 0.3959800321
H -5.1401792636 -0.5693985891 -1.1748768217
H -6.0796026381 -1.8932084853 -0.4710750748
*
