! pbe def2-sv(p) def2/J RI DEFGRID1 loosescf d4 GCP(DFT/SV(P)) printgap
%output
    printlevel normal
end
* xyz 0 1
C 2.9525697304 0.1644193482 -3.3008768957
C 3.317643238 0.8066325169 -1.9773082116
O 3.1099125611 -0.1345191122 -0.9041941946
P 2.2001547773 0.0943852041 0.3670500579
S 1.2325104622 1.8089176534 0.3560897867
O 3.290780939 -0.0184701019 1.5142439861
C 3.0408523388 -0.4356603986 2.8684289267
C 1.9288662023 0.3505140618 3.5322927719
S 1.2132565626 -1.776415466 0.5444282942
C 0.4788368284 -1.9227171882 -1.1157853106
S -0.2936834693 -0.409811317 -1.7524226568
P -1.8758529159 -0.1549280338 -0.3737893481
S -1.5967263818 -0.1356830082 1.5707596338
O -2.7792440036 -1.3500631041 -0.8869647746
C -3.8655541078 -1.8877557115 -0.1061716572
C -5.0318489547 -0.9251523415 -0.0366254621
O -2.5954347097 1.1220019751 -0.9808840113
C -2.3331764718 2.4800884585 -0.5722689158
C -3.3631796026 2.9371236128 0.4422890862
H 3.507194561 -0.760551268 -3.430669224
H 1.8855730701 -0.0461402446 -3.3386065958
H 3.2057296245 0.8488563543 -4.1038535113
H 2.7149642452 1.7016211482 -1.7874948983
H 4.376881015 1.0686562513 -1.9419231575
H 2.8057705447 -1.5040851395 2.8591652937
H 3.9976827738 -0.2708048141 3.3671802896
H 2.1331211539 1.4175547895 3.4778457476
H 0.9763399833 0.1565458288 3.037467173
H 1.8457932641 0.0523862834 4.5723975372
H -0.2622363766 -2.716312396 -1.046253597
H 1.2617846072 -2.1782910062 -1.82677343
H -4.1301404831 -2.8098618121 -0.6253338284
H -3.4917348569 -2.1151777088 0.8975607379
H -5.8651956234 -1.4033447739 0.4684695522
H -4.7419451615 -0.0358433026 0.5209149608
H -5.3340602205 -0.6292186867 -1.0377306191
H -1.3220300369 2.5558829102 -0.1628254883
H -2.3937099553 3.061730695 -1.4937534318
H -3.2748498168 2.3509297199 1.3548503537
H -3.1870910372 3.9813902444 0.6789482593
H -4.3652532231 2.8214458732 0.0381552792
*
