! pbe def2-sv(p) def2/J RI DEFGRID1 loosescf d4 GCP(DFT/SV(P)) printgap
%output
    printlevel normal
end
* xyz 0 1
C 3.2506498905 -3.3265929727 0.2114436857
C 3.3349871013 -1.8552997393 0.5575182907
O 2.3997072272 -1.1551876538 -0.299984779
P 2.3678056873 0.4236394334 -0.3327018665
S 4.0807200609 1.3317288414 -0.6288356147
O 1.7250590056 0.7706989849 1.0976048389
C 1.8626271395 2.0811196966 1.6675434257
C 1.0046599573 3.0988909537 0.9422174876
S 0.8665105666 0.7308761915 -1.7807371062
C -0.0556698564 -0.846254113 -1.7098741082
S -0.6625317149 -1.307313624 -0.0788107713
P -2.2815288132 0.0799325113 0.0928134427
S -2.6868606906 1.1762160822 -1.4774950498
O -1.9296398511 0.9618339878 1.3533256439
C -1.3246796565 0.4981532745 2.585412632
C -2.0768268533 -0.647296423 3.2266778735
O -3.517058527 -0.7787684491 0.6177298426
C -4.4394760544 -1.4229765001 -0.2734920802
C -3.7993633534 -2.5665671008 -1.034967129
H 2.2346235563 -3.6818515236 0.3590772933
H 3.5346268171 -3.4848944676 -0.8249716537
H 3.9248992511 -3.8817259032 0.8552704577
H 4.3356473546 -1.4480088415 0.380394998
H 3.0506147184 -1.6701880967 1.5957491148
H 1.5588888793 1.9606998323 2.7081294786
H 2.9179895669 2.3695222744 1.6174909787
H 1.3577349169 3.2155878176 -0.0832366115
H -0.0352984268 2.7794029782 0.9136080379
H 1.0709356984 4.0569433776 1.4472654123
H 0.5857672067 -1.6546079267 -2.0476153243
H -0.8937587524 -0.6850601135 -2.3879673472
H -0.2940014601 0.2070837842 2.3676429156
H -1.3360605335 1.3893479901 3.2153124774
H -2.0115364446 -1.5364977588 2.6029689841
H -1.6335180262 -0.8607549827 4.1946839402
H -3.1230322663 -0.3850686313 3.3597988907
H -5.2355167232 -1.7747869144 0.3841832167
H -4.8345331553 -0.6728868849 -0.9660153506
H -3.0677631449 -2.1797206186 -1.7425976261
H -3.3027269628 -3.2482108989 -0.3494284007
H -4.5655826161 -3.103705733 -1.5847555202
*
