! pbe def2-sv(p) def2/J RI DEFGRID1 loosescf d4 GCP(DFT/SV(P)) printgap
%output
    printlevel normal
end
* xyz 0 1
C 3.3872879021 0.3863682544 -2.8545782729
C 1.9324351114 0.5879466943 -2.4892619738
O 1.4707712377 -0.385397371 -1.5306902229
P 2.0649611458 -0.4861120584 -0.0671613058
S 2.682506861 1.1591089145 0.8095641104
O 3.2076666367 -1.5691327783 -0.2973245368
C 4.2523663087 -1.8123746411 0.6583793082
C 3.7241878613 -2.3993840934 1.9517179339
S 0.5108344689 -1.582185799 0.8677717837
C 0.0097569779 -0.3926971348 2.1630773236
S -1.7855533079 -0.174727176 2.2622651631
P -2.1381278165 0.656768691 0.3522990354
S -0.719108851 1.7442744395 -0.4626507006
O -3.4674901034 1.4126918814 0.7449668729
C -3.9922641975 2.5137561578 -0.0262607261
C -4.4156659477 2.0881436873 -1.4165146837
O -2.6852817847 -0.5279335944 -0.55796079
C -1.939080134 -1.2631202754 -1.5415127904
C -2.8249195196 -1.4839641913 -2.7520796017
H 3.5517568322 -0.635755039 -3.1856434763
H 3.6556430746 1.0750403761 -3.6495606181
H 4.0181411845 0.5838092769 -1.9884883338
H 1.2746325733 0.4384024907 -3.3467230921
H 1.7632544913 1.5860957997 -2.0712338883
H 4.9205738849 -2.5045984332 0.1445250625
H 4.7695532369 -0.8670647287 0.8517826617
H 3.1188181128 -1.6586315628 2.4732388816
H 3.1129497633 -3.275095766 1.7486922466
H 4.5589156065 -2.6795238612 2.5861944943
H 0.4988751774 0.5642473425 1.9613126797
H 0.3067125933 -0.7871450457 3.1315166709
H -4.8381424458 2.8633121356 0.5672046371
H -3.2265153226 3.2943046799 -0.0779921558
H -5.0974687859 1.2437137673 -1.3590587944
H -4.9067043075 2.9190617295 -1.9134659121
H -3.5386127834 1.798697238 -1.9942653726
H -1.0383274389 -0.6978158953 -1.8038569488
H -1.6427036738 -2.2125630242 -1.0878238881
H -2.2947986894 -2.1023590761 -3.4690040183
H -3.740026168 -1.9855529561 -2.4513251101
H -3.078570978 -0.5349170885 -3.2165194775
*
