! pbe def2-sv(p) def2/J RI DEFGRID1 loosescf d4 GCP(DFT/SV(P)) printgap
%output
    printlevel normal
end
* xyz 0 1
C 2.6326273992 -3.7376635787 -0.3098399595
C 2.83182046 -3.0407657945 1.0266428907
O 2.8001352911 -1.609996672 0.8576875178
C 1.6455092169 -0.9901122376 0.9352327865
O 0.589759033 -1.5385251778 1.1907400443
C 1.7828123565 0.4943304005 0.6755727963
C 0.6103995002 0.9790908337 -0.1636987537
H 0.4879505438 0.3616607696 -1.0638128241
C 0.685222125 2.4373765554 -0.5929985562
O -0.0309967238 2.8936024074 -1.4550450719
O 1.5719598519 3.114871311 0.0961438107
C 1.7303105826 4.5211036711 -0.1884366549
C 2.7113580697 4.738785017 -1.3288710728
S -0.9785578714 0.8481864112 0.7464434998
P -1.7009312339 -0.9850326362 -0.0733796315
S -0.7255432317 -1.7900447275 -1.5661204392
O -2.065640875 -1.9838112076 1.0871067242
C -2.7808770026 -1.5709991673 2.267419699
O -3.1929540078 -0.5447087108 -0.5032205607
C -3.4060917362 0.3423389154 -1.6010156889
H 2.6929238831 -4.81170626 -0.169695372
H 1.6551080466 -3.491250566 -0.7221344306
H 3.3963430233 -3.4230476236 -1.0154141696
H 3.8185702524 -3.2469611733 1.4413017813
H 2.0485916168 -3.3278583906 1.7337246749
H 2.7240774807 0.6758328388 0.157685584
H 1.7959641316 1.0213888275 1.6318789105
H 0.7504011985 4.9382306969 -0.4350677109
H 2.1031047096 4.943192963 0.7445578619
H 2.322387962 4.3016276533 -2.2456698279
H 2.8520403589 5.8038513666 -1.4801289978
H 3.6684952599 4.2812697003 -1.0952362649
H -2.2151873816 -0.800028248 2.7903109722
H -2.8595110285 -2.4685246995 2.87534986
H -3.7660285191 -1.1965380757 1.9944722161
H -4.484317856 0.4238563028 -1.7089006587
H -2.9605331702 -0.0699468678 -2.5079844986
H -2.9664319366 1.319305419 -1.3917114891
*
