! pbe def2-sv(p) def2/J RI DEFGRID1 loosescf d4 GCP(DFT/SV(P)) printgap
%output
    printlevel normal
end
* xyz 0 1
C 4.1657601055 -1.3091051315 1.2738757027
C 2.9525913221 -2.1385565558 0.8864674311
O 2.4588217785 -1.7481704992 -0.4090963037
C 1.606165806 -0.760304043 -0.4820625526
O 1.1993510913 -0.1112651835 0.4678027546
C 1.18224019 -0.4564944884 -1.9011255596
C 0.305569903 0.7887264094 -1.8954594782
H 0.2284118886 1.2001844579 -2.9062053126
C 0.9371735074 1.8547563877 -1.0051361172
O 2.1139033926 2.1305233761 -1.0943869791
O 0.0735169748 2.4706842853 -0.231604987
C 0.5647787166 3.5190191022 0.6296933584
C 1.3452639613 2.9627452708 1.8091791122
S -1.4351716187 0.4674243442 -1.464132286
P -1.5355602659 -0.7334318849 0.2895713864
S -0.7010236195 -2.5097105987 0.3212807238
O -1.2947575527 0.1429822908 1.5825188846
C -2.1121271357 1.2947194219 1.8735130524
O -3.1343226157 -0.8533987162 0.3430396561
C -3.8564326688 -1.6887892451 -0.5661764333
H 4.5388780857 -1.646841773 2.234849274
H 4.9455745085 -1.4162747671 0.525179668
H 3.8912355448 -0.2588486139 1.3493963262
H 2.143910298 -2.0221890692 1.6143409879
H 3.203603091 -3.193024137 0.7729126517
H 0.661035102 -1.3192990347 -2.3189982769
H 2.0845107568 -0.2794472709 -2.4891011842
H 1.1944861376 4.1842060182 0.0320124963
H -0.3380939112 4.0365839558 0.9534747506
H 0.7868069716 2.1606701233 2.2851068841
H 2.2954822671 2.5560177501 1.4708422056
H 1.5315355365 3.7555787946 2.5256627899
H -2.0708171692 1.9979918372 1.0425663479
H -1.6806331044 1.7293182271 2.7714580927
H -3.1391647795 0.9814770848 2.0504053063
H -3.357447774 -2.65440534 -0.6642914556
H -3.9251452383 -1.2030891072 -1.5385919854
H -4.8432306384 -1.815245677 -0.1280645349
*
