! pbe def2-sv(p) def2/J RI DEFGRID1 loosescf d4 GCP(DFT/SV(P)) printgap
%output
    printlevel normal
end
* xyz 0 1
C 5.3226190702 0.3999762679 -0.6908661152
C 4.2864120684 -0.6081625445 -1.1496913794
O 3.3098720537 -0.8481752181 -0.1175141505
P 1.8965270517 -0.1046100606 -0.0846115476
S 2.0109145316 1.854773112 -0.1749054049
O 1.3033572709 -0.7429012329 1.2317183771
C 1.5486176055 -0.1808750532 2.5382824733
C 0.4544736974 -0.6580134056 3.47012659
S 0.8603088412 -1.0690563138 -1.6409672728
C -0.1399777604 0.3103864521 -2.2753226842
S -1.9352996323 0.1407865434 -2.0293027693
P -2.0472950111 0.0617289895 0.0892618141
S -3.8370230325 0.359101019 0.8232929453
O -0.9073851195 1.0273769347 0.6284001554
C -1.2368510982 2.3637404793 1.0556959035
C -1.4968739729 3.2853442709 -0.1184698723
O -1.3362589526 -1.3038019368 0.4757461312
C -1.8986015753 -2.5723818774 0.087211372
C -2.7483809726 -3.1516954088 1.2007814851
H 6.0766931088 0.5127311462 -1.4630292215
H 4.8560025337 1.36535557 -0.5077791118
H 5.7950257462 0.0590758431 0.2261486546
H 4.7374921373 -1.5843744939 -1.3369290164
H 3.7784087091 -0.2636590277 -2.0550658337
H 2.5331025446 -0.520191624 2.8708360755
H 1.556649918 0.9113438617 2.4535491849
H 0.6117271467 -0.2323061694 4.4559453761
H -0.5177720319 -0.3474464187 3.0941142652
H 0.4707203401 -1.7419739431 3.53607608
H -0.0161943723 0.3372427524 -3.3550535391
H 0.2176335845 1.2344755328 -1.8148463422
H -2.1143664666 2.3107989447 1.7077672487
H -0.3650506272 2.6873138188 1.6263160758
H -2.3367324096 2.9137292001 -0.7051859785
H -1.7385899297 4.2751984902 0.2549218252
H -0.6139795944 3.3526610644 -0.750012507
H -2.4870448458 -2.4438874641 -0.8284274344
H -1.0332017638 -3.2042389412 -0.1263945983
H -3.5946653935 -2.4996676777 1.4065099212
H -3.1164222765 -4.1267324411 0.8982548286
H -2.1578138249 -3.2536945992 2.1068679002
*
