! pbe def2-sv(p) def2/J RI DEFGRID1 loosescf d4 GCP(DFT/SV(P)) printgap
%output
    printlevel normal
end
* xyz 0 1
C 3.3195934643 -1.131956102 -3.0515903064
C 1.9663863567 -0.9127056606 -2.4067405026
O 2.0088918658 0.1964146454 -1.4764185634
P 2.1966915181 0.0322920395 0.0771105925
S 2.2521717504 1.7742309152 0.9612569036
O 3.5207592424 -0.853109221 0.1273637839
C 3.9940764101 -1.586492946 1.2707701295
C 4.2419017299 -0.7046839502 2.4769446252
S 0.7135409611 -1.3562060598 0.7654881754
C -0.1213443029 -0.3221111597 2.0051138683
S -1.9285984244 -0.3856572298 1.8937157805
P -2.1747102848 0.2139529546 -0.1065775995
S -0.9245657131 1.5236787403 -0.8840099011
O -3.7053573165 0.6333237367 -0.192516936
C -4.1567180194 1.9779307714 0.0399222278
C -3.9625151002 2.4054823886 1.4804167915
O -2.1863338759 -1.2136495005 -0.7912174234
C -2.0086638307 -1.3997855448 -2.2086746999
C -3.2407696415 -0.9917762868 -2.9891528563
H 4.0546289025 -1.4135467029 -2.3029507878
H 3.2346153549 -1.9227948278 -3.7902849169
H 3.6489193979 -0.2180358593 -3.5382977028
H 1.6245398841 -1.8076709467 -1.8780961818
H 1.2219682491 -0.6144766803 -3.148470048
H 3.2635103448 -2.3666613782 1.5033863507
H 4.9207999629 -2.041545245 0.9165025523
H 4.6806128184 -1.2987377936 3.2721450479
H 4.9162874691 0.1083544962 2.2193218373
H 3.3071536507 -0.2710767108 2.8285059099
H 0.2310466018 0.706791992 1.8803328234
H 0.1198009414 -0.7006629277 2.9955915337
H -3.6125046185 2.6465637045 -0.635146919
H -5.2122541581 1.9502606151 -0.2338855798
H -2.8992392885 2.489257681 1.703826248
H -4.4295833241 3.3728986099 1.6350934359
H -4.4055223995 1.6763808434 2.1542431197
H -1.1390129302 -0.8146361359 -2.5266591427
H -1.7977987965 -2.4654081674 -2.3086573912
H -4.1173667171 -1.49694282 -2.5929606191
H -3.3903846074 0.0840740925 -2.9122120803
H -3.1094327525 -1.2575973257 -4.0334552858
*
