! pbe def2-sv(p) def2/J RI DEFGRID1 loosescf d4 GCP(DFT/SV(P)) printgap
%output
    printlevel normal
end
* xyz 0 1
C 4.5281415836 -1.8632215895 -0.3191600139
C 3.9355878391 -1.4104895597 -1.6370722602
O 3.2226476484 -0.1561632343 -1.532531653
P 1.9312138274 0.1682146038 -0.6684015618
S 1.2477849564 1.8844248995 -1.3122088657
O 2.3095363729 0.0984792049 0.8828742168
C 2.664415616 1.2766975732 1.624759216
C 4.0602662626 1.7470019622 1.2754731577
S 0.8384649351 -1.6340629212 -0.8568783568
C -0.0399140149 -1.8487496471 0.7328179189
S -1.8373681005 -1.7826597745 0.562503753
P -1.9924003525 0.3278851799 0.4044997737
S -0.8104366563 1.3274747997 1.6024204222
O -3.5362662132 0.6433048884 0.5903805036
C -4.1354749828 0.857892867 1.8809061616
C -4.1367001236 -0.3953421692 2.7321788768
O -1.7338496105 0.6780858355 -1.1095166479
C -2.1787580136 -0.0654645632 -2.2701488312
C -3.6767039813 -0.2719734084 -2.2998620894
H 5.1958766083 -1.101957488 0.0754748634
H 3.7402298648 -2.0533019048 0.4061985141
H 5.0883968225 -2.778810317 -0.4816912045
H 3.2522154489 -2.1625576474 -2.0382047193
H 4.7125208487 -1.1917313696 -2.3716438625
H 1.926778075 2.0588288902 1.4171778139
H 2.5796999935 0.9722487379 2.6689997102
H 4.2937059438 2.6351117712 1.8540208879
H 4.7881866255 0.9709315331 1.4958443173
H 4.1062577369 1.9924724287 0.2144199087
H 0.2875196082 -1.0759521232 1.4290147851
H 0.199473317 -2.8457291117 1.0919226831
H -3.5930433346 1.664546535 2.3840661948
H -5.1483513696 1.1855255405 1.6426191221
H -4.7195381773 -0.2148321708 3.6296815326
H -4.5685815779 -1.2275575219 2.1823716728
H -3.118621762 -0.6520827711 3.0196223082
H -1.8336512891 0.5531725164 -3.1006239689
H -1.6501325974 -1.0237992157 -2.2862185924
H -4.1896547795 0.6813675455 -2.2030578347
H -3.9475971466 -0.7326843579 -3.2448657085
H -3.9845441822 -0.9240763574 -1.4850296952
*
