! pbe def2-sv(p) def2/J RI DEFGRID1 loosescf d4 GCP(DFT/SV(P)) printgap
%output
    printlevel normal
end
* xyz 0 1
C 1.4206818429 -1.1378097824 -2.8342236621
C 2.4912058024 -0.3121642232 -2.1490939073
O 1.9053775327 0.4766254587 -1.0821492509
P 2.1010858985 0.1764816891 0.4491370515
S 1.0906265014 1.4642358562 1.521831559
O 3.6859340802 0.1954856472 0.5629192119
C 4.4571679904 -0.3660159496 1.6424858436
C 4.0413804539 0.1617266392 2.9991867636
S 1.6309188497 -1.8659525688 0.8103277684
C -0.1093666628 -1.668214312 1.2545094882
S -1.2458083117 -1.7727536645 -0.1642909044
P -2.0113490472 0.1926822097 -0.3811910127
S -1.0970291314 1.538858959 -1.4850523105
O -2.2056819906 0.5857245487 1.1424334984
C -2.3788717971 1.9510010798 1.5608686577
C -3.7336117679 2.4835465762 1.1484718463
O -3.5124566007 -0.0961879291 -0.8251872649
C -3.9342593429 -0.9721129552 -1.885352856
C -3.0928995064 -0.8420439937 -3.1374918963
H 1.8449793189 -1.6139428675 -3.71205999
H 1.0328146376 -1.9043466503 -2.1662182157
H 0.6021527477 -0.4888607681 -3.1383775173
H 2.9186644315 0.4240955393 -2.8312224543
H 3.2842625673 -0.9407935481 -1.737704227
H 4.3564697837 -1.4539977904 1.602677867
H 5.481253832 -0.077748127 1.3988492868
H 4.7110518324 -0.229660678 3.7580937921
H 4.0781049473 1.2486231065 3.0112405257
H 3.0230258913 -0.1484139563 3.2286666599
H -0.2429155987 -0.7078209789 1.7562610566
H -0.3565104333 -2.4998010862 1.9087455508
H -2.2607206816 1.9124233673 2.6446711991
H -1.5707893168 2.5544636807 1.1333676504
H -4.5213791755 1.8416329162 1.5333978183
H -3.8583553992 3.4894000572 1.5365916755
H -3.7991021649 2.5087982595 0.0611499477
H -3.9006853763 -1.9966883018 -1.504217294
H -4.9696036235 -0.6781180007 -2.0675646439
H -3.0813496491 0.1891945301 -3.4832946071
H -2.0679811477 -1.1488343108 -2.9280593398
H -3.5008946322 -1.4797160575 -3.9150309195
*
