! pbe def2-sv(p) def2/J RI DEFGRID1 loosescf d4 GCP(DFT/SV(P)) printgap
%output
    printlevel normal
end
* xyz 0 1
C 1.6800906643 2.7741617278 0.3333823072
C 1.9735619278 1.7964037035 -0.7883049776
O 2.8894303203 0.7688352243 -0.3814479885
P 2.5330455134 -0.4897377178 0.5128208647
S 2.2413230261 -0.2216228511 2.4365602063
O 3.8505386195 -1.2868283551 0.1534009708
C 4.3476745889 -2.3440799995 0.9918401077
C 3.4815570235 -3.5857066377 0.9126765613
S 0.9689681617 -1.4931682954 -0.5347546825
C -0.3442760689 -1.3385920964 0.7107623004
S -1.0066234494 0.3389179241 0.8969387731
P -2.1942557137 0.3952371079 -0.8802209277
S -1.227158143 0.2986039319 -2.5801527087
O -3.0360569659 1.7227869202 -0.6595980112
C -2.4259415303 3.0219675598 -0.8088963187
C -3.5337916432 4.037654959 -1.0001483227
O -3.2761150051 -0.7406468826 -0.7571824578
C -4.3727505551 -0.7543842848 0.1971349705
C -4.0306268979 -1.5825013282 1.4197103806
H 2.6102808515 3.1782750596 0.7239674486
H 1.0689736331 3.5845871102 -0.051543599
H 1.1483424799 2.27995976 1.1445320768
H 2.4860478122 2.2883022995 -1.6174371115
H 1.05442627 1.3355953887 -1.1690401535
H 5.3529058776 -2.5294892526 0.6110983315
H 4.4025137039 -1.9771080942 2.0221823744
H 3.9616887819 -4.3941091694 1.4546388879
H 2.5082574674 -3.3890449216 1.3599901245
H 3.3387591524 -3.8796758004 -0.1242155664
H 0.053630529 -1.6031169975 1.6902528003
H -1.1364467496 -2.0154443522 0.4001433231
H -1.8449873825 3.2272788815 0.0941746599
H -1.7539282641 2.9930363664 -1.6731295998
H -4.1966978195 4.0335249339 -0.1399853466
H -3.0958387879 5.0240938066 -1.1107703455
H -4.1086195216 3.7990431481 -1.8905522221
H -4.6199180836 0.2726955984 0.4663482468
H -5.1972592515 -1.1987090218 -0.3626138074
H -3.7214016726 -2.5817652824 1.1241105618
H -3.2344433796 -1.1162965597 1.9950468191
H -4.9140542527 -1.6595788893 2.045990028
*
