! pbe def2-sv(p) def2/J RI DEFGRID1 loosescf d4 GCP(DFT/SV(P)) printgap
%output
    printlevel normal
end
* xyz 0 1
C 4.6396380176 0.0573296182 -1.7811946544
C 4.3840342964 1.1543844433 -0.7687418645
O 3.4796924993 0.7409591547 0.2709205468
P 1.9510093969 0.4098337059 -0.001739348
S 1.0303334334 1.5853339867 -1.2740241184
O 1.326287217 0.5230898349 1.4440408925
C 1.9896708293 0.1879498531 2.6911616291
C 2.2184828317 -1.3008652065 2.8475219871
S 1.9563790165 -1.6514054549 -0.5359514762
C 0.2121382821 -1.8027420797 -0.9653735072
S -0.8937097144 -1.5545716372 0.4602305931
P -2.1309918879 0.0174549259 -0.2639263439
S -2.1789505088 0.2139083429 -2.2087116585
O -1.7419784589 1.3493164 0.4786690439
C -1.7853208262 1.4762459485 1.9234693568
C -1.091741726 2.7708419338 2.2900194746
O -3.5065527823 -0.3211592731 0.4665418021
C -4.2755582011 -1.5136041109 0.2156752528
C -5.2377932705 -1.3236841821 -0.9402742358
H 4.9362939197 -0.8607319661 -1.280493964
H 3.737108963 -0.1332703567 -2.3598836677
H 5.4283795851 0.3718248817 -2.4571044439
H 3.9647822283 2.0389172055 -1.2580348482
H 5.2924930209 1.4232203349 -0.2276304343
H 2.9305940355 0.7383830506 2.7360596535
H 1.2992876546 0.5677731932 3.4463357315
H 2.5656367143 -1.4969988191 3.8572015646
H 1.2933692459 -1.8469676969 2.675464676
H 2.9683870786 -1.6495000541 2.1414689577
H 0.0771513435 -2.8190192468 -1.3268397821
H -0.0554716239 -1.0726779307 -1.7352644455
H -2.8333403314 1.4774195586 2.2285850793
H -1.2797902428 0.6088201235 2.35814371
H -0.0640402654 2.7530441346 1.9356997092
H -1.6011639753 3.609817066 1.8244110204
H -1.1039913097 2.8917305607 3.3683887264
H -3.5922799087 -2.3460513733 0.0265833126
H -4.8102255764 -1.6862131011 1.1517958363
H -4.690441551 -1.1400414522 -1.8622057406
H -5.8385292336 -2.2200126484 -1.0555008983
H -5.8892290094 -0.4752464143 -0.7495080818
*
