! pbe def2-sv(p) def2/J RI DEFGRID1 loosescf d4 GCP(DFT/SV(P)) printgap
%output
    printlevel normal
end
* xyz 0 1
C 4.8218460288 -2.5540393423 -1.6343020122
C 3.9191807726 -2.0294074693 -0.538190453
O 3.8899592715 -0.5792154608 -0.6413272163
P 2.6857430624 0.2805766823 -0.1174413268
S 2.9406922713 2.1992910214 -0.3905941243
O 2.6108286349 -0.1850064878 1.4049239482
C 1.7628831883 0.4355859525 2.391082022
C 0.6197302509 -0.4898756849 2.7597040817
S 0.9834264791 -0.5775511517 -1.104749504
C 0.0730715133 0.9505231598 -1.4116697198
S -0.8899441545 1.5086126869 0.0167900662
P -2.4985042662 0.1674919006 -0.2770289142
S -3.1875574882 0.0284027258 -2.1008287595
O -3.6216941277 0.6169064711 0.7422817536
C -3.4390014023 0.6402932758 2.1810618091
C -3.0579886789 2.0269002119 2.6583669157
O -1.8402225405 -1.168564308 0.3098597583
C -2.2279545591 -2.4763230083 -0.1511652827
C -3.5858688149 -2.868907672 0.3940371037
H 4.4206870295 -2.289757336 -2.6087178138
H 5.8138200304 -2.122536978 -1.5366504912
H 4.8891162578 -3.6342165853 -1.5547529084
H 4.2991627161 -2.2788832315 0.4537868971
H 2.8988646073 -2.407901943 -0.6456016051
H 2.4121570351 0.6204625945 3.2492522825
H 1.3981910625 1.3929716657 2.0047305113
H -0.0155038117 -0.6743778646 1.8968387848
H 1.0105737478 -1.4385976009 3.1160237593
H 0.030443551 -0.0249197214 3.5436767745
H -0.6058574718 0.7609604392 -2.2440273455
H 0.7797256033 1.748041151 -1.6451571524
H -4.4110714851 0.3410157164 2.5766754462
H -2.6812251836 -0.0969868792 2.4551946977
H -2.0864229926 2.3163846661 2.2629198238
H -3.7969864301 2.7511074574 2.3269569315
H -3.0165452241 2.0296779339 3.743075808
H -2.2361866137 -2.4719181182 -1.2453812769
H -1.4346896548 -3.1325368509 0.2086452693
H -3.5807751714 -2.849768759 1.4806454441
H -4.3415004741 -2.1730660499 0.0294515751
H -3.8355445112 -3.8686276498 0.0531106887
*
