! r2scan-3c def2/J RI DEFGRID2 scfconv6 printgap
%output
    printlevel normal
end
%cpcm
    smd true
    smdsolvent "water"
end
* xyz 0 1
C 1.465265842 0.1338395328 -3.6253103711
C 2.3534942717 0.0622726349 -2.401383472
O 1.6073865046 -0.565927354 -1.3302784576
P 2.1398175697 -0.4602851654 0.1594817696
S 2.6532409865 1.3163078112 0.8224754266
O 3.3646293403 -1.4775960623 0.083063361
C 4.3998089903 -1.517509571 1.0799766381
C 3.8811709491 -1.9843375593 2.4246162456
S 0.6294356693 -1.5102008803 1.1860101357
C -0.0491881339 -0.1632522322 2.2173413869
S -1.8475735549 -0.0028065011 2.0806975095
P -1.9857430599 0.4077983157 0.0198035725
S -0.6473191235 1.6367864125 -0.7329598265
O -3.4864592466 0.8956838567 -0.1455692754
C -3.8983736769 2.2354099133 0.1908965433
C -5.2026853159 2.5162648905 -0.5278023125
O -2.0582974239 -1.0543695815 -0.5704091413
C -1.734763255 -1.3805356376 -1.9380866539
C -2.6657663144 -0.6946790455 -2.9144927261
H 0.5866615121 0.7362638157 -3.4080142048
H 2.019840107 0.596083485 -4.4354166066
H 1.1542632603 -0.8634384901 -3.9229763393
H 2.6509838894 1.063516631 -2.070605307
H 3.2480193363 -0.5382776356 -2.584260807
H 5.1336243646 -2.2103965906 0.6663838328
H 4.8347394601 -0.5164420541 1.1633519533
H 4.7160602214 -2.1153710149 3.1053780103
H 3.2033046034 -1.2379696941 2.8371712042
H 3.3475166402 -2.9254443559 2.3189876469
H 0.4359269543 0.7733926554 1.9275339264
H 0.1430724777 -0.3965756131 3.2614983915
H -4.0197425181 2.2910646235 1.2758654447
H -3.1106622788 2.9314488474 -0.1175802934
H -5.5494410489 3.5088805927 -0.260129696
H -5.0578214494 2.4650984479 -1.6031930623
H -5.9487241105 1.7826247201 -0.2370064391
H -0.6937863549 -1.0990922059 -2.1206854645
H -1.8340229297 -2.4663853141 -1.9712444466
H -2.5347314908 0.3853611307 -2.8500512157
H -2.4359282267 -1.0196745619 -3.924417236
H -3.69892573 -0.9367117291 -2.6794877487
*
