! pbe def2-sv(p) def2/J RI DEFGRID1 loosescf d4 GCP(DFT/SV(P)) printgap
%output
    printlevel normal
end
* xyz 0 1
C 3.5050903926 -0.6779864218 -2.998572984
C 4.2483980272 -0.7229104804 -1.6808484624
O 3.6463282987 0.1066774509 -0.6670718279
P 2.1129204876 0.084647888 -0.2585007201
S 0.8866402129 1.0729669162 -1.4207290521
O 2.1225810354 0.7504526346 1.1668901711
C 2.9661818606 0.3258484144 2.2654430776
C 4.1890487035 1.213603148 2.3689869518
S 1.7873319832 -2.0024093123 0.0447473591
C 0.1116101986 -1.9763664464 0.7219918967
S -1.172044276 -1.5677781118 -0.5055964777
P -1.9309833859 0.1821363862 0.3821711487
S -1.0228249718 0.9461323973 1.9343283383
O -3.3777900182 -0.4183276662 0.7258096866
C -4.3343940807 0.3919339085 1.4397737637
C -5.6727871884 -0.3148860157 1.3827050572
O -2.1719759537 1.2698878629 -0.7420331678
C -2.6808212127 0.9368317708 -2.0585963853
C -3.9290923323 1.749005852 -2.3352915076
H 2.5056611566 -1.0951766539 -2.8805669602
H 3.407994248 0.3483267659 -3.3451360093
H 4.0466011714 -1.2593449843 -3.7377551362
H 5.2568573303 -0.316978216 -1.7779307603
H 4.2925404019 -1.7454723626 -1.2964400705
H 2.3279381056 0.4193283388 3.1469664064
H 3.2471998266 -0.7206583102 2.1163949165
H 3.8850706586 2.2504146057 2.4846310693
H 4.7740374839 0.9120335653 3.2321387446
H 4.7954628922 1.1248884188 1.4714543722
H 0.0518066038 -1.2513903436 1.5388631552
H -0.0750346884 -2.9879801931 1.0728998818
H -3.9798400746 0.5065008848 2.4686871243
H -4.3774800886 1.383517069 0.9762102463
H -6.4075732432 0.2692661551 1.9270073473
H -5.9936831503 -0.4289116399 0.3510655215
H -5.5877607122 -1.2993935172 1.8328969866
H -1.8736746783 1.1819336642 -2.7529875785
H -2.884605798 -0.1375256353 -2.1045221583
H -3.714815709 2.8073283312 -2.2143334207
H -4.2511703238 1.5623049136 -3.3546456016
H -4.726538409 1.4688463552 -1.651370522
*
