! pbe def2-sv(p) def2/J RI DEFGRID1 loosescf d4 GCP(DFT/SV(P)) printgap
%output
    printlevel normal
end
* xyz 0 1
C 5.6916511763 -1.7837466419 0.4502274028
C 4.4071438177 -1.5955596648 -0.3314687509
O 3.5616107856 -0.6963673014 0.4147706843
P 2.3539639663 0.0726257673 -0.2705055786
S 2.7886012949 0.9878406197 -1.9551193925
O 1.8348382967 0.979213123 0.916184325
C 2.240673447 2.3541139492 1.0659049994
C 3.6987773809 2.4605524669 1.4585241611
S 0.8360357012 -1.3894300778 -0.3737679642
C -0.2138466834 -0.5029036504 -1.5510712054
S -0.9683024433 1.0068650863 -0.8640993837
P -2.6833824605 0.1387988976 0.0155093533
S -3.9406911884 1.3524420272 0.8970596251
O -2.1529758938 -1.0656173633 0.917740196
C -1.9958004916 -0.9435848958 2.3397877207
C -0.8888585868 0.0202120003 2.7148898075
O -3.2280043387 -0.6330886966 -1.261411078
C -4.6031290238 -1.0604408323 -1.3570221727
C -4.9279891468 -2.1535746405 -0.3608748846
H 6.3290504952 -2.4863001141 -0.0764666503
H 6.2119773937 -0.8356662665 0.5523535985
H 5.468350371 -2.1711290985 1.4399011162
H 3.8727627714 -2.5411821761 -0.4553508416
H 4.5967203545 -1.1587747776 -1.3178562924
H 2.0491028467 2.8774377865 0.12353313
H 1.5786550806 2.7408820364 1.841608817
H 3.8899871583 1.8729922283 2.3524361074
H 4.3247306479 2.0861296557 0.6491726602
H 3.9480379642 3.5002362939 1.6458846702
H -0.9939724142 -1.1854599442 -1.8727088798
H 0.3988076471 -0.1713818579 -2.3898910227
H -2.9475690196 -0.6063765606 2.7632238386
H -1.7756626911 -1.9597473833 2.6688902142
H 0.0591460339 -0.2928182877 2.2842515101
H -1.1301207325 1.0175357829 2.3448969338
H -0.795430475 0.0591628107 3.7953974026
H -5.2464625562 -0.1894521921 -1.1981228615
H -4.6956657915 -1.4075794428 -2.3869727071
H -4.2194694407 -2.9725200604 -0.4538763403
H -4.8789913188 -1.7569687744 0.6523256972
H -5.9325116709 -2.5207097078 -0.5465384925
*
