! pbe def2-sv(p) def2/J RI DEFGRID1 loosescf d4 GCP(DFT/SV(P)) printgap
%output
    printlevel normal
end
* xyz 0 1
C 4.397687542 0.5820122894 -2.0259849437
C 4.5956104933 0.2361745322 -0.5636370431
O 3.4427193245 -0.4065224516 0.0005281616
P 2.0660313684 0.3682026524 0.2332341034
S 2.25507023 2.2221417468 0.8312161227
O 1.3302216016 -0.6371886965 1.2049459935
C 1.3354246741 -0.4653683354 2.6355759063
C 2.7014647591 -0.7456821018 3.224284924
S 0.9542712643 0.0782706185 -1.5516089542
C 0.5101648253 -1.6715421547 -1.4194691687
S -0.7845376176 -2.0455143369 -0.1857292568
P -1.9764337329 -0.3216757016 -0.3515664344
S -2.4976557555 0.2787623908 -2.1481465957
O -1.1960624033 0.7208552794 0.5596471785
C -1.4202072488 2.1390640937 0.41891488
C -2.7937584187 2.538025977 0.9110638175
O -3.1975801531 -0.6980530805 0.5915172041
C -4.2756565664 -1.5413888611 0.1361405541
C -5.4649760532 -1.3130855692 1.0469667601
H 4.126234803 -0.3032864482 -2.5951303895
H 3.6023872187 1.3207113413 -2.1287003621
H 5.3173229967 0.9981339847 -2.424620917
H 4.8056239105 1.1402674659 0.0169555796
H 5.3980139699 -0.4897084777 -0.4250411771
H 1.0139429672 0.5555332725 2.8645735217
H 0.5844273457 -1.1764215437 2.9835789273
H 2.6421095067 -0.7012413576 4.3071787982
H 3.0469549102 -1.7298823461 2.9193348915
H 3.4129420351 0.0028290369 2.8773733447
H 1.38071852 -2.2585801072 -1.1365983183
H 0.1461649269 -1.9471591497 -2.4075094242
H -0.6231827492 2.5972236974 1.0083332226
H -1.2881434403 2.4072456266 -0.6353404746
H -2.8846452054 3.6191693168 0.8792745132
H -3.5554371235 2.0974743517 0.2686938105
H -2.943071357 2.1885838254 1.9292150803
H -4.5066655213 -1.2800512374 -0.9022088198
H -3.9349330673 -2.5793448428 0.1763662744
H -6.2761049032 -1.9658247177 0.7417209733
H -5.1912941431 -1.5335946738 2.0745801277
H -5.7939352347 -0.2796638402 0.9840775362
*
