! pbe def2-sv(p) def2/J RI DEFGRID1 loosescf d4 GCP(DFT/SV(P)) printgap
%output
    printlevel normal
end
* xyz 0 1
C 4.2876835906 2.1055008905 -0.6089703086
C 3.0886588997 1.3121331863 -1.0872155458
O 2.0690303602 1.2668642116 -0.0606771775
P 1.8298745238 -0.0025840333 0.8475557566
S 0.4128280286 0.3233903672 2.153743715
O 3.3014258809 -0.236451458 1.4118562709
C 3.7841736693 -1.4483656213 2.0183019715
C 2.9175009181 -1.9231279275 3.1656445451
S 1.5788265608 -1.68102289 -0.4495970064
C -0.177848659 -2.0270997605 -0.2068461609
S -1.2053342058 -1.6033413143 -1.6547190317
P -2.0193017413 0.2346422521 -1.0412030367
S -3.368915462 1.0124312653 -2.226176983
O -0.6815633801 1.0803598845 -0.8609832692
C -0.7320203258 2.5236547799 -0.856454913
C -1.5140944005 3.0691920231 0.3188227763
O -2.4854602663 0.0212380416 0.4675054645
C -3.8300531408 -0.3588109561 0.8016843156
C -4.1087761793 -1.8096763983 0.4630314839
H 5.0151867139 2.168282768 -1.4121240198
H 3.9818535026 3.1078399835 -0.3221035704
H 4.7406606761 1.6191594864 0.2507114855
H 3.3709687149 0.2904879579 -1.3575517151
H 2.6078814145 1.7919938432 -1.9426357499
H 3.8514210225 -2.2148848871 1.2413673462
H 4.784987823 -1.1814045079 2.3624800106
H 2.7914287011 -1.1308441254 3.8998149276
H 1.9328987336 -2.2120786501 2.8013449911
H 3.3854702936 -2.7805081821 3.6385861546
H -0.529033717 -1.4722588307 0.6676343811
H -0.2766051367 -3.1008625108 -0.0741642709
H 0.3160434534 2.8200030118 -0.808374276
H -1.1758405986 2.8493708723 -1.802622809
H -2.5672093779 2.8091698238 0.2192875198
H -1.1342271372 2.6496714572 1.2479404462
H -1.4172193172 4.1500152255 0.3430656311
H -3.896161197 -0.1724619809 1.8745407031
H -4.5192907914 0.300238424 0.2634237725
H -5.1114352884 -2.0657832243 0.7899515926
H -4.039691726 -1.9600957193 -0.6141109252
H -3.3928566862 -2.4601215582 0.9588138804
*
