! r2scan-3c def2/J RI DEFGRID2 scfconv6 printgap
%output
    printlevel normal
end
* xyz 0 1
C 4.2948598535 -0.2899804981 -2.1994822188
C 4.4373259019 0.6540376759 -1.023384467
O 3.6651217649 0.2343027971 0.1154172411
P 2.0759270978 0.1943712593 0.1108095332
S 1.1918004854 1.6972893771 -0.7768958799
O 1.7265462911 0.1400227964 1.6486103325
C 2.233928648 -0.8640146029 2.5627788665
C 3.4667451154 -0.3621292451 3.2854049375
S 1.6353780925 -1.7546847326 -0.6308526026
C -0.1210000155 -1.5123643064 -0.9459014943
S -1.054972722 -1.1799848158 0.5925969225
P -2.5025562754 0.1993448853 -0.1383043228
S -2.2261884118 0.8512481087 -1.9722041412
O -2.6627950697 1.3258892085 0.9595945307
C -1.8987700084 2.5421885121 0.9971788418
C -0.915769986 2.5089615946 2.1507851445
O -3.8886343216 -0.4909487117 0.1891820808
C -4.2184458171 -1.8558338998 -0.122736525
C -4.2087989832 -2.1304144701 -1.6134204444
H 4.4880977348 -1.3139598308 -1.8898404244
H 3.2870498835 -0.229635662 -2.6075826798
H 5.0018201593 -0.006531874 -2.9726756007
H 4.1208520499 1.6644180831 -1.3001740288
H 5.4614387106 0.6767403879 -0.6480160306
H 1.4073918468 -1.0416952733 3.2534681539
H 2.4469818974 -1.7781428343 2.0019171721
H 4.275956187 -0.1954321057 2.5797710877
H 3.2469244222 0.5720623265 3.7948327413
H 3.7743854798 -1.1045615589 4.0151040634
H -0.4744285692 -2.4414936256 -1.3861437787
H -0.2707568226 -0.6665207733 -1.624183933
H -1.3841829764 2.6855383711 0.0401156015
H -2.6341688917 3.3385341244 1.1295956509
H -1.4397087912 2.2922767827 3.0772402934
H -0.1580548649 1.7458425127 1.9842006515
H -0.4252923303 3.4742630311 2.2251222684
H -3.5159188756 -2.5118481915 0.4004738246
H -5.2180116727 -1.9791590299 0.2976297627
H -4.8782709691 -1.4448209306 -2.1270242343
H -3.2068075697 -1.991779702 -2.0174008313
H -4.5295557068 -3.151189585 -1.7947932826
*
