! r2scan-3c def2/J RI DEFGRID2 scfconv6 printgap
%output
    printlevel normal
end
* xyz 0 1
C 5.0730210921 -2.6206272097 -0.7419663404
C 4.0954127267 -1.5813923355 -1.253052487
O 2.9923893462 -1.5122533721 -0.3270882365
P 2.0885807058 -0.2136517383 -0.1717437141
S 3.1047829707 1.464912684 -0.1001281141
O 1.2199644762 -0.6068524393 1.089698049
C 1.6750389615 -0.341267007 2.4399343409
C 1.0457239872 0.9297251757 2.9727483254
S 0.673242489 -0.4108565537 -1.7248867286
C 0.10570671 1.3132934401 -1.7174296056
S -0.6532976136 1.7948684272 -0.153045233
P -2.3192987998 0.4588409571 -0.252387788
S -3.0145420608 0.0682735261 -2.0342139489
O -3.3866673501 1.1824110688 0.6530952653
C -3.1340707416 1.7885122613 1.9439705675
C -3.1604003593 0.7628537586 3.0584516684
O -1.8771076987 -0.8143794759 0.6006872244
C -1.6602134291 -2.1313575588 0.0703589537
C -2.7118436456 -3.0731603085 0.6226270144
H 5.4652263424 -2.3232302057 0.2265159086
H 4.5740840274 -3.5800583357 -0.6411635059
H 5.8930547336 -2.7133635194 -1.4463901985
H 3.6959923412 -1.8560008023 -2.2325307441
H 4.5601924466 -0.591660854 -1.3180815365
H 1.3616864139 -1.2156985973 3.0122806339
H 2.7658756144 -0.2701701432 2.4436897431
H 1.3778820953 1.7871367182 2.3910029404
H -0.0367617456 0.8657133303 2.9069916864
H 1.3373970134 1.0668504 4.0089157039
H -0.6204181222 1.4003929854 -2.5252328688
H 0.9555675992 1.9786545657 -1.8665397846
H -2.1742166877 2.3113338862 1.9025610929
H -3.9413878917 2.5151007048 2.0507367955
H -3.0244539206 1.2694553742 4.0090412182
H -4.1140479587 0.2419575058 3.0625138389
H -2.3658750461 0.0338077907 2.9219323886
H -1.709045331 -2.0935358171 -1.0230080259
H -0.6526242631 -2.4211543493 0.3778832141
H -3.6989049622 -2.7568419691 0.2925735296
H -2.5186686696 -4.0760960349 0.2560244185
H -2.6850300522 -3.0740716479 1.708513801
*
