! pbe def2-sv(p) def2/J RI DEFGRID1 loosescf d4 GCP(DFT/SV(P)) printgap
%output
    printlevel normal
end
* xyz 0 1
C 4.397181268 -0.1460827677 -2.1746714785
C 4.407758261 0.9516376524 -1.1305270949
O 3.6742276212 0.5921713715 0.0528259469
P 2.0993369802 0.3608237556 0.062227951
S 1.0587804217 1.6139202099 -1.0269393979
O 1.7734591001 0.4931184078 1.6002869647
C 2.4776097919 -0.2770060182 2.6165837636
C 1.5327518001 -1.2578448668 3.2801266583
S 1.9161324675 -1.7062271207 -0.4019377215
C 0.1547322708 -1.7328053672 -0.8019736947
S -0.8886327121 -1.2004411736 0.5898498613
P -2.142851919 0.2403161092 -0.3524777951
S -2.0543097111 0.2352001611 -2.3092612136
O -1.8726864942 1.6791581672 0.2263289092
C -2.2383364097 2.155774616 1.5435489166
C -1.5193708206 1.4120200996 2.6492718747
O -3.5560602984 -0.0743516101 0.3134007598
C -4.2305379755 -1.3443397512 0.251891866
C -4.933703036 -1.5554810448 -1.0742913856
H 5.0734342289 0.1211436222 -2.9803849402
H 4.7106762522 -1.0904213638 -1.736770431
H 3.3944005631 -0.261961435 -2.5837025073
H 3.976395963 1.8720320155 -1.5361578624
H 5.4152316997 1.1455225306 -0.7594345701
H 3.3212210419 -0.7900131233 2.1506621923
H 2.8470798265 0.4653105668 3.3254187365
H 0.6832224933 -0.7336236004 3.7076280225
H 1.1643303098 -1.9833457027 2.5588575387
H 2.0671929857 -1.7786589199 4.0680605787
H -0.0809463812 -2.7667402683 -1.0416847333
H -0.0532424559 -1.0750950892 -1.6512266611
H -1.9463357249 3.2070164349 1.5119605334
H -3.3218206159 2.0716322599 1.6475797851
H -0.4458186777 1.4296623532 2.4716155241
H -1.7342334769 1.8938188464 3.598107826
H -1.8539126109 0.376396462 2.6904657341
H -3.5040597002 -2.1392414013 0.4431830628
H -4.9469100909 -1.2971647959 1.0746096099
H -5.6234643554 -0.7381154996 -1.2678591102
H -4.2114778281 -1.5947362918 -1.8867950646
H -5.4843220108 -2.4900184747 -1.0411417204
*
