! pbe def2-sv(p) def2/J RI DEFGRID1 loosescf d4 GCP(DFT/SV(P)) printgap
%output
    printlevel normal
end
* xyz 0 1
C 3.184876111 -2.761594681 -1.5822610765
C 3.8253787745 -1.455484503 -1.9984162799
O 3.8888545686 -0.4813426592 -0.9276527202
P 2.7060059996 0.0186558002 -0.0220489611
S 3.1706326938 1.7449270262 0.77500393
O 2.5224353586 -1.2139223204 0.9694742493
C 1.4643992327 -1.393885229 1.9239320388
C 1.5666270565 -0.4412708188 3.098358552
S 0.9754237082 0.0128938508 -1.2849741543
C 0.2415835071 1.5725466832 -0.7471664057
S -0.7257802207 1.4182246961 0.7804398514
P -2.2517371901 0.2080530529 -0.0401029435
S -2.7959742982 0.5748954899 -1.8919711843
O -3.420578002 0.2589093969 1.0339023815
C -4.477811161 1.2315275108 0.976456313
C -3.9770347681 2.6364125192 1.243204671
O -1.6251510269 -1.2227777473 0.2336498475
C -2.0414405481 -2.3960218496 -0.496169034
C -3.4639351076 -2.7912065593 -0.160938553
H 2.1302580707 -2.6089853732 -1.3600707598
H 3.2720061924 -3.47218645 -2.3984967719
H 3.6807097543 -3.1607305292 -0.7014545055
H 3.2805286652 -1.0033337489 -2.8310811521
H 4.8732982762 -1.5895721413 -2.2711318259
H 0.5011734889 -1.2819402577 1.416771122
H 1.5865068551 -2.4295962689 2.2476257421
H 0.8128007574 -0.7017288961 3.8344484048
H 2.5526494879 -0.5082615015 3.5510400016
H 1.4022028385 0.5853317549 2.7763724082
H -0.409473073 1.9055625413 -1.5547079831
H 1.0337861379 2.2936377257 -0.5407963615
H -4.9478050228 1.1737521869 -0.0107253583
H -5.180028856 0.9015942724 1.7430838033
H -3.3255562456 2.9605171346 0.4323064117
H -4.8222149005 3.3144065394 1.3059032913
H -3.4171886069 2.6687192414 2.1746091635
H -1.9346885738 -2.1916967406 -1.5662749053
H -1.3263890044 -3.1615803857 -0.1920677064
H -3.5810039708 -2.896549843 0.9144342576
H -4.1541079319 -2.027306216 -0.5170653323
H -3.700202435 -3.7329922343 -0.6461995886
*
