! pbe def2-sv(p) def2/J RI DEFGRID1 loosescf d4 GCP(DFT/SV(P)) printgap
%output
    printlevel normal
end
* xyz 0 1
C 3.8481494359 -3.7865514616 -0.0501003461
C 4.0087228887 -2.8862413023 -1.2642539051
O 2.7293891575 -2.3943917469 -1.7154926671
C 2.241248279 -1.3060282423 -1.1647951632
O 2.802785617 -0.6484323071 -0.3116752467
C 0.8697867839 -0.9709069758 -1.7081127204
C 0.523348334 0.4882393439 -1.4263296149
H 0.986943852 1.1692344219 -2.1404558889
C 0.8989247532 0.8997551498 -0.0170927594
O 0.3954357009 0.3544118449 0.9495516827
O 1.6977732858 1.9284104711 0.013158066
C 2.0912652447 2.4612726871 1.2958435236
C 1.1283047979 3.5488878741 1.7427379934
S -1.2749875812 0.7586624654 -1.5474962086
P -2.0530391131 0.1489631156 0.3483849383
S -2.1252613218 1.3746024351 1.8863674546
O -3.5443743099 -0.151565915 -0.1645764352
C -4.4472004066 0.8978172195 -0.5189532061
O -1.6569989882 -1.3761678242 0.5682807505
C -1.13611949 -1.8889373488 1.7971769434
H 3.1635942827 -4.5999797214 -0.2739761799
H 4.8149477264 -4.1969511927 0.2217601901
H 3.4595274905 -3.2165370279 0.7912714042
H 4.4016429658 -3.4366439079 -2.1188413362
H 4.6483084793 -2.0304288276 -1.0313443966
H 0.1580779006 -1.6290290626 -1.1994386757
H 0.8204654077 -1.1876310224 -2.7741738398
H 2.1222381258 1.640576816 2.0169786511
H 3.0926994144 2.8569330601 1.1261875989
H 0.137130056 3.1327670318 1.9155006045
H 1.4876880467 3.985042632 2.6686682132
H 1.0583999015 4.3225951905 0.9833382232
H -4.1709609446 1.3178935337 -1.4862649057
H -4.4326986342 1.6786169618 0.244349055
H -5.4295934217 0.4350491735 -0.5687376299
H -0.0575283122 -2.0133548489 1.7046076074
H -1.6287135636 -2.844138419 1.9626799429
H -1.3449881008 -1.201793544 2.6187359531
*
