! r2scan-3c def2/J RI DEFGRID2 scfconv6 printgap
%output
    printlevel normal
end
* xyz 0 1
C 5.5208840589 -1.270144199 -1.1661104712
C 4.1592064899 -1.2522533948 -1.8332168264
O 3.1222671492 -1.5391670492 -0.8713335022
P 2.2555955565 -0.3906182814 -0.1929460408
S 3.2716981315 1.1509559284 0.4750524144
O 1.4305863646 -1.2255046866 0.8666784179
C 1.9448243576 -1.4828797235 2.1987390887
C 1.3953379333 -0.4788537703 3.1919227237
S 0.779074847 0.0286246199 -1.6426828645
C 0.195556075 1.5726971397 -0.8860389286
S -0.7163912922 1.2985021484 0.6446026254
P -2.3926920643 0.3301612549 -0.2639400195
S -2.8962642608 0.9916076175 -2.0337021818
O -3.4742516501 0.354716563 0.8993436071
C -3.8680383614 1.5241388583 1.6433849465
C -4.3271414887 2.6595595647 0.7535411747
O -2.051152368 -1.2057179702 -0.3575487478
C -1.7364526204 -2.0328429759 0.7871747993
C -2.9397205211 -2.8610765917 1.1872939642
H 5.6816873797 -2.2239720883 -0.6716816374
H 6.2887818726 -1.1205108328 -1.9181125473
H 5.587510596 -0.473179672 -0.4285582631
H 4.070564564 -2.0392938252 -2.58413234
H 3.9641806011 -0.2819220241 -2.2983476412
H 1.615264603 -2.4974157417 2.427278988
H 3.0368714024 -1.447410658 2.1739033789
H 1.7549190929 -0.7283998284 4.1849585953
H 1.7271246288 0.5249109504 2.9354527397
H 0.3093194882 -0.4940113099 3.1878662347
H -0.4591449194 2.0458868566 -1.6183852088
H 1.049773293 2.2038546509 -0.6397131589
H -4.679167809 1.1626278828 2.2778757707
H -3.0214556685 1.8360157446 2.2612480968
H -4.6958583436 3.4736128372 1.3692236427
H -3.4985933207 3.0207518305 0.1461165746
H -5.11806092 2.3239650494 0.0869894717
H -0.9058859601 -2.6601581667 0.4567119789
H -1.4038280354 -1.3918804845 1.6081049117
H -2.6676638672 -3.5104658668 2.0134545252
H -3.7565115175 -2.2116579734 1.4913391459
H -3.2692367097 -3.4658962388 0.3470185324
*
