! pbe def2-sv(p) def2/J RI DEFGRID1 loosescf d4 GCP(DFT/SV(P)) printgap
%output
    printlevel normal
end
* xyz 0 1
C 3.6575491874 0.0952083796 -2.6521173368
C 2.2657206286 0.1020923339 -2.0569188638
O 2.2753250745 0.6964792041 -0.7365519082
P 2.3581257984 -0.1396193897 0.5989934842
S 2.6887244812 0.9978695894 2.1512742384
O 3.4816297157 -1.2144561623 0.2706812923
C 4.1749119747 -1.9452406356 1.3003891616
C 3.2611131207 -2.8781727631 2.0676113708
S 0.5639142064 -1.2979504817 0.6621841615
C -0.3923214225 -0.1555279246 1.685281238
S -0.8717416867 1.375773201 0.8324950519
P -2.046263725 0.5352447518 -0.7257289637
S -1.1960991895 -0.1564160615 -2.3425420651
O -3.0038014856 1.7285075077 -1.1345342616
C -3.6326203477 2.6888633789 -0.2547919054
C -4.5850209961 2.0413124031 0.7279476889
O -2.881145836 -0.54363402 0.1042125693
C -3.291061027 -1.8005691607 -0.4655918265
C -4.516644793 -1.6228647898 -1.3378548287
H 4.0624729045 1.1035737219 -2.6574958434
H 4.314752168 -0.5463387275 -2.0713766926
H 3.600572912 -0.2749795673 -3.6708745277
H 1.8499980829 -0.9073036689 -1.9940299867
H 1.5846375746 0.7276927623 -2.63761173
H 4.9429316428 -2.4945049451 0.7539730899
H 4.6421198165 -1.2228327313 1.9763828872
H 2.5564048442 -2.3021435065 2.665138977
H 2.7054889584 -3.5140725775 1.3828168063
H 3.8588756245 -3.4964563898 2.7295594377
H 0.2157054587 0.1673677803 2.5318202204
H -1.2814347427 -0.6876184586 2.0112724757
H -2.848252846 3.2434955566 0.2663709372
H -4.1557918214 3.3529773896 -0.9450058018
H -4.0402315292 1.3933217257 1.4107857787
H -5.0840776072 2.8178113087 1.2994362644
H -5.3294734613 1.4531143843 0.19774819
H -2.4599100225 -2.2130287118 -1.0461057501
H -3.4932613433 -2.4368243871 0.3969440601
H -4.8135523553 -2.5845132327 -1.7438333806
H -5.3371958092 -1.2069332253 -0.7595824946
H -4.2835445314 -0.9471955165 -2.1603525606
*
