  21
        -22.10045875
 C         -3.1507712114       -0.8932450265       -0.0755968847
 C         -2.2342121158        0.2842174050        0.2348470496
 C         -0.7988210479        0.0206241390       -0.2140749764
 C          0.1242175153        1.1978715334        0.0902296148
 C          1.5673196816        0.9219815206       -0.3445674505
 C          2.1774332495       -0.1976601192        0.4361336517
 C          2.6980725138       -1.2891645446       -0.0925672814
 H         -2.8001236901       -1.7907589558        0.4290666126
 H         -3.1700612562       -1.0885594925       -1.1454453657
 H         -4.1657168134       -0.6863460806        0.2549218661
 H         -2.2452016125        0.4785821282        1.3098192049
 H         -2.6102486813        1.1791121331       -0.2665525051
 H         -0.4191787170       -0.8723922815        0.2882296555
 H         -0.7877651626       -0.1771341567       -1.2886156317
 H         -0.2420338453        2.0870495806       -0.4275937705
 H          0.1039631205        1.4053177789        1.1627185261
 H          2.1601816718        1.8263557197       -0.1801101853
 H          1.5924721003        0.6877929107       -1.4103732466
 H          2.1691944100       -0.0651803416        1.5108732023
 H          3.1307069952       -2.0683821415        0.5116560065
 H          2.7168121317       -1.4472454370       -1.1585786113
