! pbe def2-sv(p) def2/J RI DEFGRID1 loosescf d4 GCP(DFT/SV(P)) printgap
%output
    printlevel normal
end
* xyz 0 1
C 0.8930408173 1.4483434598 -0.4781315992
C 1.4027939015 0.1889776753 0.2419419177
H 2.4898626138 0.1081674453 0.1097676198
C 0.7271976068 -1.0498243224 -0.3818903744
H 1.0761663866 -1.958572663 0.1212862518
C -0.8011104708 -0.9701363478 -0.1777334119
H -1.2699038596 -1.5623467015 -0.9787251966
C -1.2829174682 0.5092255047 -0.2921588641
H -2.2298388373 0.5686753018 -0.8402421495
O -0.3752366509 1.2388624922 -1.0934739631
O -1.5136508716 1.0777464787 0.9470315504
O -1.0927031758 -1.5224011063 1.07895542
O 1.0788431842 -1.2024044212 -1.7305831546
O 1.0880989102 0.3241347553 1.6117479129
H 1.5564171448 1.7399908298 -1.2909687599
H 0.8302167748 2.2669451503 0.2482649816
H -0.7222829604 0.935130123 1.510273005
H -2.0086163089 -1.3219529107 1.3215307222
H 0.7243341053 -0.4561690898 -2.2377252222
H 1.2953923229 -0.4939777114 2.0854321257
*
