! r2scan-3c def2/J RI DEFGRID2 scfconv6 printgap
%output
    printlevel normal
end
* xyz 0 1
C 5.4170483579 -1.5868301599 -0.1246260686
C 4.8028182318 -1.029267872 -1.3914442793
O 3.3654041012 -1.1481714817 -1.3813518285
P 2.46032568 -0.2793197246 -0.4201158541
S 3.153540329 1.5165139181 -0.0301763796
O 2.2931948645 -1.294472003 0.7954385454
C 1.4107054866 -1.1823235073 1.9239073626
C 1.774193733 -0.035026121 2.8455451436
S 0.6547090317 -0.3810392625 -1.5327097052
C 0.0460810718 1.293078808 -1.1809448405
S -0.6778166253 1.4548830147 0.4732404779
P -2.3695882675 0.2454179873 0.1031327808
S -3.2189177665 0.4119811569 -1.6600565526
O -3.3210989809 0.4986059005 1.3480006064
C -4.3229956055 1.5307104674 1.3590557912
C -3.7136521846 2.9178684921 1.3620202726
O -1.7616883721 -1.1774110229 0.4546391041
C -2.3279708907 -2.3995962513 -0.0599337979
C -3.6779765072 -2.6935500561 0.5591880371
H 5.0869349456 -2.6100345791 0.0336384057
H 6.4991756715 -1.5618240284 -0.2057231608
H 5.109872025 -0.9823396999 0.7278688443
H 5.1058165503 -1.5934211447 -2.2743145443
H 5.0641091344 0.0265887048 -1.5156720914
H 0.3819121525 -1.0824939292 1.5657617502
H 1.526621685 -2.1439747852 2.4282846467
H 2.8186500389 -0.1028095147 3.139031022
H 1.6105859324 0.9213912438 2.3531071273
H 1.1488615694 -0.0816822921 3.7312665027
H -0.7140938248 1.5108201768 -1.9304990896
H 0.8728259128 2.001854189 -1.2297391411
H -4.9671941372 1.3965296054 0.4840975979
H -4.8882850237 1.3362956469 2.2715047032
H -2.9892807668 3.0115744819 2.1671730076
H -3.2093067638 3.1059513478 0.4149173925
H -4.4986716303 3.6554778379 1.4941269198
H -2.4073966228 -2.3119804159 -1.148374701
H -1.5883610818 -3.1602448749 0.1935284628
H -4.398231466 -1.9368628619 0.2503721958
H -4.0235635595 -3.6665839596 0.2244882241
H -3.6034870844 -2.6866363272 1.6433761595
*
