! pbe def2-sv(p) def2/J RI DEFGRID1 loosescf d4 GCP(DFT/SV(P)) printgap
%output
    printlevel normal
end
* xyz 0 1
C 3.5447617526 -2.341170698 -1.1333348725
C 4.0386775613 -0.9133930819 -1.0114141306
O 3.3689129361 -0.1977815326 0.0356139526
P 1.8427884603 0.2718294837 -0.0226035517
S 1.2260903975 0.5723687501 -1.862021041
O 1.8680642955 1.5085017329 0.9631372024
C 2.0161235455 2.8647708577 0.5062045987
C 3.3927569463 3.1221748626 -0.0706379724
S 0.8747938712 -0.9940953191 1.3748168423
C 0.122332827 -2.312584532 0.3749702201
S -1.050602325 -1.7510837547 -0.9032136798
P -2.0624553515 -0.2134764106 0.1196575643
S -1.3334289708 1.5965004786 0.3992306436
O -2.4552223665 -1.0203617342 1.4210287751
C -2.9866254562 -0.3803127808 2.6044971728
C -1.8910993013 -0.1537163511 3.6272066215
O -3.4502326855 -0.1495748992 -0.6602088619
C -3.6700001186 0.7258260712 -1.7773295166
C -2.8425838778 0.3192022822 -2.9798853323
H 4.1798611305 -2.884186202 -1.8259979479
H 3.5690377853 -2.8312706985 -0.1629257277
H 2.5264734952 -2.3421158812 -1.5217033419
H 3.8886472009 -0.3771902637 -1.9538693547
H 5.089724278 -0.8734392256 -0.7224293356
H 1.2331013473 3.0676207398 -0.2324945899
H 1.8297152042 3.4616575079 1.400287039
H 4.1574752971 2.8350127117 0.6464486464
H 3.5266301497 2.5420905202 -0.9831342887
H 3.4911952899 4.1773337878 -0.3052969447
H -0.4101458234 -2.9338846364 1.0920651523
H 0.8820349124 -2.8889149359 -0.1480496277
H -3.4598686952 0.5640419916 2.3220409579
H -3.7425487821 -1.0753949911 2.9728085273
H -1.1576906523 0.5521433738 3.2423515207
H -2.3280329109 0.2500463072 4.5347481086
H -1.3851752764 -1.088506846 3.8513848007
H -4.7395672432 0.6402644812 -1.9730686858
H -3.4261295976 1.7485768233 -1.4702029623
H -1.7805531654 0.4492398748 -2.7648609533
H -3.0206849098 -0.7244970835 -3.22665021
H -3.1037223045 0.9428307604 -3.8287092424
*
