! pbe def2-sv(p) def2/J RI DEFGRID1 loosescf d4 GCP(DFT/SV(P)) printgap
%output
    printlevel normal
end
* xyz 0 1
C 5.2173214856 -1.0346446343 -2.3168833527
C 4.616613735 -0.7875599658 -0.9470993291
O 3.211200216 -1.0991571876 -1.010267702
C 2.5479620645 -1.1816479971 0.1250583408
O 3.0471560979 -1.0396218561 1.2181074558
C 1.0804686369 -1.4970593337 -0.1076160925
C 0.4478734526 -0.4528287921 -1.0306495557
H 0.9704285707 -0.4428266646 -1.9906414911
C 0.5034600394 0.9249622264 -0.4045819351
O -0.498142757 1.5554946803 -0.1277255661
O 1.7279063745 1.3281046616 -0.2083882348
C 1.9382927743 2.5454389684 0.5431324857
C 1.9200832716 2.2476491595 2.0330278491
S -1.285613088 -0.8318680784 -1.415406822
P -2.3058643053 -0.1533102047 0.3414808468
S -1.4649545801 -0.0656574213 2.1116975168
O -3.2666303209 1.0484570231 -0.0935526942
C -3.0780237751 2.4469312168 0.1125662795
O -3.4010402076 -1.3085925089 0.4409843966
C -4.3028875513 -1.6478545543 -0.6250385265
H 6.2771804859 -0.8047367734 -2.2894246622
H 5.084559686 -2.0741777302 -2.6011830287
H 4.7331508246 -0.4040497166 -3.0561093703
H 4.715836691 0.2588166027 -0.6435018836
H 5.076649052 -1.4154441887 -0.177848314
H 0.574616219 -1.5199642536 0.8604919343
H 1.0007465141 -2.4764541759 -0.5814465071
H 2.9160249272 2.8986790555 0.216404507
H 1.1588277109 3.2625078513 0.2739174363
H 0.9357696884 1.8953794131 2.3384891663
H 2.6446660231 1.4710973051 2.2678066167
H 2.1616648608 3.1484296408 2.5865788808
H -2.5313081585 2.623612858 1.0386216783
H -4.0790023412 2.8691092365 0.1734950652
H -2.5277831912 2.8710643102 -0.7251371658
H -4.960059278 -0.806842003 -0.8381016903
H -4.8707359824 -2.4981385942 -0.2558916356
H -3.7399916639 -1.9200942717 -1.5182493677
*
