! r2scan-3c def2/J RI DEFGRID2 scfconv6 printgap
%output
    printlevel normal
end
%cpcm
    smd true
    smdsolvent "water"
end
* xyz 0 1
C 5.3678658656 0.2246130352 -0.799777205
C 4.0824218266 -0.3013046677 -1.4086287126
O 3.1260207272 -0.6293766941 -0.3832228644
P 2.0146973816 0.4180006758 0.0867191825
S 2.6238215788 2.2053155225 0.6027845061
O 1.2794783654 -0.423530779 1.2023159148
C 1.5769566039 -0.2534864079 2.6017217912
C 2.9363549154 -0.8234794746 2.9450431545
S 0.6168451235 0.4094136603 -1.5002276723
C 0.1618137725 -1.3458960315 -1.540504347
S -0.8863119958 -1.8924652976 -0.1529560484
P -2.2297380892 -0.2823959563 -0.1063974381
S -2.8956386293 0.4477568593 -1.8056829069
O -1.439344719 0.6992806407 0.865247004
C -1.9537994212 2.0097831851 1.1910609525
C -1.3150416844 3.0752095354 0.322267325
O -3.3924582907 -0.7721939059 0.8646753437
C -4.5743972604 -1.4319558757 0.3765619163
C -4.272886125 -2.8237459585 -0.1400715201
H 5.1801290998 1.1557404043 -0.2694991414
H 5.774933761 -0.5021820046 -0.1024219023
H 6.0891488509 0.4080387705 -1.5895113694
H 4.2531019179 -1.2383515831 -1.942249591
H 3.6427701099 0.4337391724 -2.0908753788
H 1.5312965762 0.8139032454 2.8412089175
H 0.768175722 -0.7834080783 3.1069389067
H 2.9969594708 -1.8623544896 2.6321710588
H 3.7103834637 -0.2535071503 2.4324062895
H 3.0971345457 -0.7556349894 4.0163470249
H 1.0540841399 -1.9667518329 -1.508867655
H -0.3815730044 -1.4765723618 -2.4746889101
H -3.0409637636 2.006786453 1.0715066853
H -1.70191015 2.1517666738 2.243620986
H -1.6817552025 4.0511630582 0.6233143598
H -0.2323580449 3.0544422563 0.4303275551
H -1.5609908461 2.9088980177 -0.7248027027
H -5.2376420586 -1.4554445159 1.2421744169
H -5.0125512493 -0.8144329243 -0.4142602227
H -3.6595799726 -2.7609937626 -1.0378569769
H -3.7363043841 -3.3976763287 0.611108264
H -5.2037890801 -3.3257323448 -0.3832413681
*
