! pbe def2-sv(p) def2/J RI DEFGRID1 loosescf d4 GCP(DFT/SV(P)) printgap
%output
    printlevel normal
end
* xyz 0 1
C 5.0133375132 0.4390418616 -0.8481622663
C 4.6611449986 -1.01724933 -1.1034320822
O 3.2374431728 -1.17373063 -1.2652147557
C 2.5097356385 -1.5036659514 -0.2173654081
O 2.9476300159 -1.7312194046 0.8868750483
C 1.0366175521 -1.5938154581 -0.582635488
C 0.5355947711 -0.2512592555 -1.1212513216
H 1.1425374479 0.0515173817 -1.9779102729
C 0.5935590593 0.8121357943 -0.0455983842
O -0.4107182631 1.3509037761 0.3842837801
O 1.8040610665 1.0447238597 0.3650290657
C 2.0040025102 1.9968225914 1.4364962902
C 2.2411690874 3.3884567024 0.8761502546
S -1.1814549553 -0.3422866947 -1.729227882
P -2.2970726048 -0.170712503 0.0574574891
S -1.7307237016 -0.8548272982 1.8205433166
O -3.1295681375 1.1942912008 0.0903259818
C -2.9258363668 2.2908432482 0.9799895581
O -3.4331242008 -1.1109234413 -0.5843461177
C -4.618895707 -1.4486577417 0.1380794822
H 6.0911225225 0.5394619708 -0.7740705025
H 4.6497364225 1.0600039343 -1.6618281954
H 4.5595802881 0.7715629919 0.081514105
H 4.9898638034 -1.6499647838 -0.2744374323
H 5.0873318548 -1.3703543806 -2.0429937781
H 0.4747649006 -1.8925308228 0.3050225251
H 0.9122465915 -2.3471766538 -1.3611562286
H 1.1279936481 1.973120098 2.0896385286
H 2.87674169 1.6216220238 1.9721890213
H 1.3617523016 3.732527581 0.3372307049
H 2.4403252172 4.0701634186 1.6961942188
H 3.0921903458 3.3825006371 0.2010808193
H -2.2665997431 3.0199548305 0.5140220356
H -2.4860711208 1.9401720752 1.9147425149
H -3.9110107628 2.7168213435 1.1577676727
H -5.2940467801 -0.5940814647 0.1707535589
H -4.3636025329 -1.7582588671 1.1540887102
H -5.0708756603 -2.2736764023 -0.4067510473
*
