! pbe def2-sv(p) def2/J RI DEFGRID1 loosescf d4 GCP(DFT/SV(P)) printgap
%output
    printlevel normal
end
* xyz 0 1
C 3.8454364206 0.6267906595 -2.6993590519
C 4.1625835266 1.3410448122 -1.4004309148
O 3.9448319179 0.5003184272 -0.2541498056
P 2.4993896741 0.0562335923 0.1999911274
S 1.1147773951 1.4339283452 -0.0420351735
O 2.9256312106 -0.3206130075 1.6755498674
C 2.1377473785 -1.0825909047 2.6069171815
C 1.1071737373 -0.2192631697 3.3086633637
S 2.1377284306 -1.8058188278 -0.7722617261
C 0.376236403 -1.6296255737 -1.1258084157
S -0.637383055 -1.6312343535 0.3987352106
P -2.0809511096 -0.1821696536 -0.110996613
S -1.9849457169 0.5889715305 -1.9137782928
O -2.1224174865 0.8719181516 1.0819841189
C -1.9408252517 2.2894742259 0.9361060954
C -3.2839366066 2.9913880706 0.9403241689
O -3.3180779687 -1.1210189002 0.2311636114
C -4.6665442273 -0.6422820544 0.4035316755
C -5.3568278807 -0.4042504747 -0.9253186404
H 4.156734751 1.2452453912 -3.5351606779
H 4.364363341 -0.3274007193 -2.7411346372
H 2.7733054954 0.44871852 -2.7761370423
H 3.5491895591 2.2422662559 -1.2962655619
H 5.2191283022 1.6037090709 -1.3334944514
H 1.6558940356 -1.9154480303 2.0837493255
H 2.8737134472 -1.4705105372 3.3135460363
H 1.5891333297 0.637537882 3.7718653679
H 0.3640552249 0.1397289654 2.598718249
H 0.6052474625 -0.8088881001 4.0688278415
H 0.1059273369 -2.4916988177 -1.7299984143
H 0.1841032626 -0.6964333904 -1.6622132439
H -1.3211998619 2.5913065117 1.7819347753
H -1.3982555581 2.4912991667 0.0074259675
H -3.8333978054 2.7482993988 1.8459089223
H -3.1222300529 4.0634609816 0.8961460319
H -3.8656050904 2.6866057574 0.0722015531
H -5.1544791582 -1.440942592 0.9654083982
H -4.6438845476 0.2691614986 1.0066903073
H -6.3845062303 -0.1036957348 -0.7471508262
H -4.8486974213 0.3786115761 -1.4852260893
H -5.3454028869 -1.3131105418 -1.5209362896
*
