  17
  -22.4988513100000       6.781865923008386E-002 !mtd9
 C          2.8861345065       -0.0615107617       -0.0006882514
 C          1.3916679706       -0.0042038403        0.0004055217
 C          0.7126363006        1.2128380853        0.0003732739
 C         -0.6677883232        1.2220996612        0.0002059355
 C         -1.3550777273        0.0083573978        0.0000737861
 N         -0.7135292724       -1.1536888808        0.0002585444
 C          0.6107022099       -1.1517336832        0.0004114839
 C         -2.8510089157       -0.0340665068       -0.0005615968
 H          3.2801811228        0.4253892546       -0.8912607414
 H          3.2835913985        0.4595452883        0.8686235003
 H          3.2318045178       -1.0913953343        0.0180448558
 H          1.2680447121        2.1401054289        0.0004954036
 H         -1.2163532446        2.1516209788        0.0002518497
 H          1.0697571122       -2.1329061090        0.0007222532
 H         -3.1871903676       -1.0658331954        0.0071555082
 H         -3.2411637487        0.4791843601        0.8759529136
 H         -3.2395413546        0.4647290894       -0.8862020430
  17
  -22.4988510900000       6.780287268952177E-002 !md4
 C          2.8861224076       -0.0614620270        0.0007370043
 C          1.3916600396       -0.0042301528       -0.0002012661
 C          0.7126311729        1.2128095309       -0.0003152260
 C         -0.6677984619        1.2220865571       -0.0003545992
 C         -1.3550666698        0.0083329071       -0.0001867727
 N         -0.7135339198       -1.1537043591       -0.0003527983
 C          0.6107049276       -1.1517568608       -0.0004036446
 C         -2.8509891494       -0.0340178490        0.0006470133
 H          3.2318609839       -1.0914564513       -0.0078096715
 H          3.2829289985        0.4505271344       -0.8742806015
 H          3.2807814812        0.4347312752        0.8858540396
 H          1.2680486199        2.1400732641       -0.0005091828
 H         -1.2163230444        2.1516211530       -0.0005787188
 H          1.0697500334       -2.1329448853       -0.0004576196
 H         -3.2392739571        0.4637034982        0.8870036097
 H         -3.2412953369        0.4803417341       -0.8751347472
 H         -3.1872621336       -1.0657244160       -0.0082608494
  17
  -22.4988510400000       6.779928535213224E-002 !gc
 C          2.8861429007       -0.0615177079       -0.0016641310
 C          1.3916738669       -0.0041894759        0.0010170301
 C          0.7126278247        1.2128276476        0.0008843417
 C         -0.6678169956        1.2220942951        0.0002913863
 C         -1.3550749153        0.0083511036       -0.0002879444
 N         -0.7135200653       -1.1536967117        0.0003158917
 C          0.6107055801       -1.1517364635        0.0010376556
 C         -2.8510036244       -0.0340422977       -0.0008517201
 H          3.2779190520        0.4047922852       -0.9043067079
 H          3.2857607214        0.4793526476        0.8543731464
 H          3.2318986440       -1.0907601604        0.0391197228
 H          1.2680038457        2.1401122425        0.0012849587
 H         -1.2163227430        2.1516404839        0.0003736869
 H          1.0697676569       -2.1329046842        0.0017715310
 H         -3.2402561114        0.4639837469        0.8849027437
 H         -3.2404023000        0.4800372246       -0.8772371430
 H         -3.1872309032       -1.0657856266       -0.0097558072
  17
  -22.4988507200000       6.777633088539886E-002 !md5
 C          2.8861471138       -0.0614681538        0.0004351891
 C          1.3916568357       -0.0042167295        0.0005395048
 C          0.7126129221        1.2128257129       -0.0001086943
 C         -0.6678078722        1.2220814450       -0.0007787840
 C         -1.3550642197        0.0083040223       -0.0007382079
 N         -0.7135361662       -1.1537274301       -0.0008025395
 C          0.6107040807       -1.1517563375       -0.0001950796
 C         -2.8509906915       -0.0339816083        0.0012733598
 H          3.2834015513        0.4680431318        0.8646756595
 H          3.2319462465       -1.0911035281        0.0290092550
 H          3.2803822233        0.4167423148       -0.8947758684
 H          1.2680421973        2.1400720141        0.0002146900
 H         -1.2163672477        2.1515948558       -0.0010110329
 H          1.0697957531       -2.1329165854       -0.0001261661
 H         -3.2428161657        0.4930136193       -0.8662333563
 H         -3.1873847809       -1.0654527310       -0.0211561874
 H         -3.2376802490        0.4508870664        0.8954638990
  17
  -22.4988506500000       6.777131063196935E-002 !md6
 C          2.8861201972       -0.0615094649       -0.0005477451
 C          1.3916710706       -0.0041919150        0.0009093204
 C          0.7126319657        1.2128308827        0.0003121225
 C         -0.6678126559        1.2220901980       -0.0003683928
 C         -1.3550740572        0.0083431380       -0.0006686246
 N         -0.7135197960       -1.1537079286       -0.0005266560
 C          0.6107032147       -1.1517367393        0.0004793713
 C         -2.8509919826       -0.0340316758        0.0005099506
 H          3.2848371962        0.4770041862        0.8574495941
 H          3.2318862991       -1.0908729992        0.0378636397
 H          3.2789040441        0.4073218518       -0.9014662718
 H          1.2680022253        2.1401193731        0.0006044169
 H         -1.2163229203        2.1516335549       -0.0004606207
 H          1.0697720954       -2.1329066130        0.0009285366
 H         -3.2383277157        0.4526405359        0.8934366869
 H         -3.2422446406        0.4911717605       -0.8683349704
 H         -3.1872904190       -1.0655748715       -0.0201620972
  17
  -22.4988505200000       6.776198829052205E-002 !md3
 C          2.8861304503       -0.0615208210        0.0011862263
 C          1.3916705595       -0.0041894722       -0.0007501454
 C          0.7126302842        1.2128291065       -0.0005357441
 C         -0.6678143423        1.2220953069       -0.0003526430
 C         -1.3550739703        0.0083526178       -0.0003695788
 N         -0.7135193893       -1.1536937308       -0.0004486006
 C          0.6107056041       -1.1517322897       -0.0005650918
 C         -2.8509965054       -0.0340479876        0.0008548775
 H          3.2852505033        0.4795366346       -0.8549451778
 H          3.2784508264        0.4045702384        0.9036760363
 H          3.2318722698       -1.0907232612       -0.0400575665
 H          1.2680110925        2.1401107489       -0.0010169467
 H         -1.2163167873        2.1516414134       -0.0006324615
 H          1.0697586052       -2.1329017214       -0.0009289376
 H         -3.2425079504        0.4959566780       -0.8649686977
 H         -3.1872716465       -1.0654639404       -0.0250969856
 H         -3.2380879714        0.4477075775        0.8965458529
  17
  -22.4988504200000       6.775481813117044E-002 !md5
 C          2.8861288202       -0.0615912688        0.0020433131
 C          1.3916799617       -0.0041305384       -0.0014239754
 C          0.7126301489        1.2128586807       -0.0010184257
 C         -0.6678280861        1.2220999912       -0.0003032898
 C         -1.3550748980        0.0083649509        0.0000506676
 N         -0.7135046792       -1.1536925563       -0.0003961847
 C          0.6107117124       -1.1517048612       -0.0011150850
 C         -2.8510044126       -0.0340702804        0.0009308704
 H          3.2319595115       -1.0893208619       -0.0663964676
 H          3.2875924475        0.5032964562       -0.8372890898
 H          3.2759764597        0.3788318148        0.9185113380
 H          1.2679689616        2.1401730035       -0.0017144435
 H         -1.2163355221        2.1516407292       -0.0004943494
 H          1.0698042382       -2.1328616152       -0.0018996078
 H         -3.2414494880        0.4816812487       -0.8739923861
 H         -3.1872276344       -1.0657755841       -0.0093697610
 H         -3.2392291900        0.4622736396        0.8881121080
  17
  -22.4988502100000       6.773976326621643E-002 !input
 C          2.8861273535       -0.0615930627        0.0017820288
 C          1.3916772425       -0.0041373442       -0.0014574393
 C          0.7126257987        1.2128510475       -0.0009550804
 C         -0.6678347000        1.2220992734        0.0001006913
 C         -1.3550779460        0.0083711396        0.0007041669
 N         -0.7134961160       -1.1536786483        0.0000761989
 C          0.6107111299       -1.1517015651       -0.0010535600
 C         -2.8510002899       -0.0340749477        0.0001552388
 H          3.2319124580       -1.0896826634       -0.0612259241
 H          3.2872464125        0.4986028285       -0.8408911714
 H          3.2763983517        0.3839077209        0.9155868743
 H          1.2679581332        2.1401694035       -0.0015100979
 H         -1.2163217384        2.1516566962        0.0002074088
 H          1.0697917663       -2.1328581995       -0.0018479079
 H         -3.1872274468       -1.0655272055        0.0249723730
 H         -3.2419976350        0.4946607678        0.8669355095
 H         -3.2386448445        0.4489607922       -0.8946587392
  17
  -22.4988502100000       6.773976326621643E-002 !md4
 C          2.8861197550       -0.0614906088        0.0004509183
 C          1.3916538591       -0.0042259517        0.0003506384
 C          0.7126145438        1.2128217554       -0.0002276252
 C         -0.6678052916        1.2221186215       -0.0003123184
 C         -1.3550752686        0.0083559461        0.0003345381
 N         -0.7135420333       -1.1536698916       -0.0002029308
 C          0.6107076796       -1.1517477093       -0.0003942719
 C         -2.8509562090       -0.0340586705        0.0003550575
 H          3.2834401809        0.4715340357        0.8624921417
 H          3.2318307995       -1.0910193213        0.0330811005
 H          3.2802946275        0.4130599780       -0.8967583118
 H          1.2680614924        2.1400668506        0.0002226104
 H         -1.2163375985        2.1516463355       -0.0002859325
 H          1.0696922896       -2.1329558781       -0.0004187027
 H         -3.1871135093       -1.0653506665        0.0326166181
 H         -3.2418131852        0.5010875047        0.8632137578
 H         -3.2386647521        0.4421900856       -0.8979801065
  17
  -22.4987567900000       6.136359785659656E-002 !gc
 C          2.8858447950       -0.0725785495        0.0068241248
 C          1.3920553369        0.0038731339       -0.0038627427
 C          0.7115517478        1.2172908408       -0.0033704975
 C         -0.6707078258        1.2233244329       -0.0016326974
 C         -1.3552013076        0.0098121692        0.0000394385
 N         -0.7105468799       -1.1523197520       -0.0018483778
 C          0.6118744639       -1.1471478617       -0.0038917035
 C         -2.8510531929       -0.0371703643        0.0040788719
 H          3.2338231170       -0.4265277830        0.9765043944
 H          3.2364371198       -0.7722393430       -0.7488429164
 H          3.3228045721        0.9042795175       -0.1826898967
 H          1.2620908955        2.1476117998       -0.0053273354
 H         -1.2202340171        2.1522614762       -0.0023157614
 H          1.0754970809       -2.1260341295       -0.0073050394
 H         -3.1839704193       -1.0699041438       -0.0114384175
 H         -3.2386249771        0.4524039872        0.8953437502
 H         -3.2455565091        0.4825478776       -0.8666104794
  17
  -22.4987554900000       6.127924085730935E-002 !gc
 C          2.8857702251       -0.0714428867        0.0136656519
 C          1.3920488972        0.0030095021       -0.0056220926
 C          0.7117416582        1.2168268003       -0.0065848856
 C         -0.6703542627        1.2233102066       -0.0052785936
 C         -1.3552275952        0.0098590979       -0.0023017154
 N         -0.7108845005       -1.1522927602       -0.0058900203
 C          0.6116986017       -1.1475760519       -0.0076727127
 C         -2.8509621776       -0.0371158532        0.0115134679
 H          3.2312091439       -0.3240362030        1.0156719937
 H          3.2389320863       -0.8434201287       -0.6660394200
 H          3.3225660078        0.8823297026       -0.2703950438
 H          1.2628438765        2.1467815903       -0.0097002229
 H         -1.2195753522        2.1524248706       -0.0076745438
 H          1.0746433466       -2.1267995748       -0.0129602848
 H         -3.2573513989        0.5834963178       -0.7837840718
 H         -3.1857627443       -1.0613038006       -0.1175941204
 H         -3.2247329613        0.3409029035        0.9615097433
  17
  -22.4987467400000       6.071446254645447E-002 !gc
 C          2.8858554289       -0.0734913720        0.0004099055
 C          1.3920615111        0.0045164543       -0.0006498750
 C          0.7114140220        1.2176710525       -0.0002309554
 C         -0.6709589833        1.2234432641        0.0002549138
 C         -1.3552049404        0.0098933035        0.0002683792
 N         -0.7103116738       -1.1522085775        0.0002023277
 C          0.6120051441       -1.1467727791       -0.0001889990
 C         -2.8510601274       -0.0373852393       -0.0003344041
 H          3.2344785925       -0.6433960994       -0.8588989322
 H          3.3233115487        0.9206439603       -0.0350754634
 H          3.2352951123       -0.5791803320        0.8990104083
 H          1.2616436112        2.1481849098       -0.0004154153
 H         -1.2206487648        2.1522859408        0.0002885958
 H          1.0759555888       -2.1255074276       -0.0003828115
 H         -3.1836441474       -1.0703848256        0.0009570652
 H         -3.2426931327        0.4686463678        0.8798252191
 H         -3.2416975870        0.4659503392       -0.8825071412
  17
  -22.4987459900000       6.066629586422408E-002 !gc
 C          2.8858511995       -0.0735752582       -0.0018613433
 C          1.3920703454        0.0045874189        0.0000675530
 C          0.7114446385        1.2177007580        0.0009374253
 C         -0.6709732488        1.2234427726        0.0010683531
 C         -1.3552073045        0.0099514387        0.0001008775
 N         -0.7102948759       -1.1521973617        0.0010395665
 C          0.6119711271       -1.1467278379        0.0012292100
 C         -2.8510565065       -0.0374626962       -0.0020085637
 H          3.2326619291       -0.6335646862       -0.8684611293
 H          3.3233868713        0.9208192914       -0.0271662294
 H          3.2370148872       -0.5896483975        0.8900754111
 H          1.2615812440        2.1482730348        0.0007504028
 H         -1.2206090015        2.1523163930        0.0012617214
 H          1.0760438630       -2.1254136363        0.0012805127
 H         -3.2431278292        0.4539178700        0.8862462637
 H         -3.2414694510        0.4802097914       -0.8757838417
 H         -3.1835744600       -1.0703221500       -0.0170908071
  17
  -22.4987425100000       6.044330197627500E-002 !gc
 C          2.8858377793       -0.0732319655       -0.0068155031
 C          1.3920739229        0.0043135048        0.0023091169
 C          0.7114756003        1.2175628230        0.0031999457
 C         -0.6708596048        1.2234765077        0.0032470176
 C         -1.3552336188        0.0099537835        0.0018080914
 N         -0.7104003570       -1.1521545121        0.0035036529
 C          0.6119510514       -1.1468559564        0.0038488532
 C         -2.8510345361       -0.0374430991       -0.0067436134
 H          3.3234174108        0.9161253184        0.0963813481
 H          3.2377612473       -0.7033024713        0.8076313403
 H          3.2317943225       -0.5126428077       -0.9412230241
 H          1.2618682068        2.1479822149        0.0047289348
 H         -1.2203870315        2.1524107758        0.0048619455
 H          1.0756861596       -2.1257101513        0.0066345096
 H         -3.2306266328        0.3750075048       -0.9398361760
 H         -3.1846367815       -1.0657209182        0.0885902551
 H         -3.2528179345        0.5535228202        0.8133649984
  17
  -22.4984202500000       4.297815221697585E-002 !mtd1
 C          2.8863140963       -0.0734376843        0.0135755509
 C          1.3928319149        0.0045286469       -0.0055851871
 C          0.7139689400        1.2173923292       -0.0064328858
 C         -0.6698105271        1.2255397516       -0.0051988514
 C         -1.3565468120        0.0151544037       -0.0017970167
 N         -0.7108383274       -1.1488907733       -0.0054694610
 C          0.6097256861       -1.1458564878       -0.0078371302
 C         -2.8517693669       -0.0437298785        0.0110787734
 H          3.2306775358       -0.3422723664        1.0116868459
 H          3.2380376788       -0.8358612210       -0.6777152043
 H          3.3254391597        0.8834416965       -0.2559983371
 H          1.2648575443        2.1474981059       -0.0094998554
 H         -1.2135549982        2.1578565326       -0.0074032922
 H          1.0717873092       -2.1255456476       -0.0127708854
 H         -3.1924841268       -0.4952919497        0.9405536302
 H         -3.2786304490        0.9503140538       -0.0813754684
 H         -3.2039824458       -0.6694576633       -0.8052904817
  17
  -22.4984116800000       4.259015693893331E-002 !gc
 C          2.8863426456       -0.0740149217        0.0090718721
 C          1.3928253960        0.0049650659       -0.0050257230
 C          0.7139648290        1.2176918389       -0.0044305544
 C         -0.6698755774        1.2255707597       -0.0023632062
 C         -1.3565516940        0.0151818459       -0.0002753752
 N         -0.7107422169       -1.1488632691       -0.0026240065
 C          0.6097567705       -1.1455552317       -0.0051747428
 C         -2.8518356900       -0.0439082877        0.0057623552
 H          3.2351212305       -0.8207044013       -0.7007382328
 H          3.3254402196        0.8883309090       -0.2404221947
 H          3.2337253362       -0.3661550730        0.9994606875
 H          1.2645803806        2.1479487212       -0.0067416898
 H         -1.2136847715        2.1578511221       -0.0032211600
 H          1.0721897106       -2.1250828059       -0.0091880959
 H         -3.2012239399       -0.6219514685       -0.8464511327
 H         -3.1958947285       -0.5477910405        0.9062399154
 H         -3.2784021032        0.9538017577       -0.0334504952
