! r2scan-3c def2/J RI DEFGRID2 scfconv6 printgap
%output
    printlevel normal
end
%cpcm
    smd true
    smdsolvent "water"
end
* xyz 0 1
C -1.7201968095 -0.3783364386 -2.8469e-06
C -0.6249236118 0.6651756304 6.5354e-06
Cl 1.002009679 -0.1165531834 2.769e-07
H -2.6836882585 0.1246297273 -3.36697e-05
H -1.651593456 -1.0075841146 -0.8832097923
H -1.6517292871 -1.0077631472 0.883107262
H -0.6563534518 1.2860921274 0.892960875
H -0.6562358153 1.2862160218 -0.8928783655
*
