! pbe def2-sv(p) def2/J RI DEFGRID1 loosescf d4 GCP(DFT/SV(P)) printgap
%output
    printlevel normal
end
* xyz 0 1
C 2.6292519539 1.6338992375 -1.7870980614
C 3.0860368437 0.2356910341 -1.4236144299
O 3.4772673213 0.1381598384 -0.0450649494
P 2.487505494 0.0399635674 1.1990623397
S 1.4064210051 1.604192046 1.6633206428
O 3.4994865621 -0.2579626698 2.3654663305
C 4.6784703944 -1.0955555644 2.2798941597
C 4.341005248 -2.5447109352 2.0021369637
S 1.3512227076 -1.750359566 0.8867704692
C -0.2649480899 -1.0202993682 0.61464036
S -0.4195994343 -0.4506418727 -1.1247410047
P -2.4653221511 0.0332887692 -1.0958046236
S -3.2804601876 0.6209234677 -2.7763509383
O -2.6521424705 1.0352610695 0.1356669598
C -2.6947882104 2.4580490281 -0.0531950959
C -1.3637489064 3.0120939496 -0.5178466263
O -3.0180754614 -1.3267138751 -0.4860314737
C -4.400157852 -1.7137357894 -0.6324275416
C -5.3252350743 -0.8230775352 0.1698473966
H 3.401280449 2.3590766001 -1.5440961888
H 2.4162273366 1.6741861651 -2.8502573475
H 1.7254009111 1.8908041391 -1.239527227
H 3.9892094422 -0.0401618223 -1.9713362081
H 2.294485483 -0.4930738629 -1.6266539949
H 5.3320284789 -0.6877584075 1.5069835774
H 5.1399022678 -0.9716926198 3.2608174431
H 3.6317028102 -2.9167605618 2.736797143
H 3.9036131186 -2.6520601242 1.0110945485
H 5.2503756827 -3.1356382964 2.0516605347
H -0.3932078864 -0.1629069884 1.2783148014
H -1.003362886 -1.7954101526 0.7969048655
H -3.4763565297 2.6842950013 -0.7858733282
H -2.9734687885 2.8484417147 0.9262073564
H -1.4331879849 4.0912070118 -0.6070147878
H -0.5766270029 2.7651194987 0.1920370669
H -1.1108297496 2.5932990801 -1.4924562029
H -4.6573007342 -1.6794254291 -1.6957395728
H -4.4207168893 -2.7452182984 -0.278076328
H -6.3355067036 -1.2169405631 0.1197722305
H -5.0033299148 -0.7807036248 1.2072166568
H -5.3185660758 0.185024605 -0.2425555052
*
