! pbe def2-sv(p) def2/J RI DEFGRID1 loosescf d4 GCP(DFT/SV(P)) printgap
%output
    printlevel normal
end
* xyz 0 1
C 4.3900162107 -1.6417627013 -0.7251511736
C 4.5668952264 -0.143373854 -0.5885502951
O 3.4816686535 0.4811331206 0.1199266385
P 1.9948177119 0.535599142 -0.4515163188
S 1.8660570796 0.8154755587 -2.3803251806
O 1.374540962 1.7030190635 0.4063749589
C 1.4265215703 1.7361509096 1.8533554305
C 2.5176214168 2.673689991 2.3264316835
S 1.1509917155 -1.2653496272 0.3092829811
C 0.0076682988 -1.6998521179 -1.039728244
S -1.6722977803 -1.9974216691 -0.4567773395
P -2.1263640281 -0.0052538502 0.1360852866
S -1.4559713277 1.4163332403 -1.0351205957
O -1.5666012384 0.1857799791 1.5986939479
C -1.9637013512 -0.6857789533 2.6954670518
C -0.7544298487 -0.974999497 3.5601939104
O -3.6891279623 -0.0694610196 0.4143169683
C -4.6775283244 -0.6120541958 -0.4819808247
C -4.6267514029 0.0122844021 -1.8602970118
H 4.1874429122 -2.0912661631 0.2436354645
H 3.561429232 -1.8572981205 -1.3979774291
H 5.2970450783 -2.0696282378 -1.1398472512
H 4.645335131 0.3245283727 -1.5745961814
H 5.4433568227 0.1048478757 0.0117764585
H 0.4352887287 2.0843350675 2.1531575209
H 1.587676161 0.7200933057 2.2248937348
H 2.3646938761 3.663420753 1.9046285545
H 2.4866643932 2.7353015067 3.4097263728
H 3.4907179513 2.3049979642 2.0132216658
H 0.3406491209 -2.6337252109 -1.4855511202
H 0.0130858011 -0.8870634288 -1.771588437
H -2.7392313853 -0.1545985856 3.2492630591
H -2.3801222796 -1.6076455003 2.2800963806
H -1.0606412602 -1.6064223782 4.3880510658
H 0.0080538337 -1.4910090815 2.9817567298
H -0.3395817131 -0.0498541 3.9494604374
H -4.5255126699 -1.6932233775 -0.541549942
H -5.6222531244 -0.3954052027 0.0196587277
H -4.7164441823 1.0939621852 -1.7914165823
H -3.6790029306 -0.2200937787 -2.3444629097
H -5.4384054937 -0.3790691083 -2.4649975913
*
