! wb97x-v def2-tzvp def2/J RIJCOSX DEFGRID2 scfconv7 GCP(DFT/TZ) printgap
%output
    printlevel normal
end
%cpcm
    smd true
    smdsolvent "water"
end
* xyz 0 1
C 0.6614082670222007 1.6774751748506596 -0.019532868237907914
C 1.39050351037661 0.36566875978759966 -0.2614653157811764
H 1.5798807455794666 0.24773965840916118 -1.3411735772993523
C 0.5282967448526971 -0.8007333256246439 0.21134946168466515
H 0.3988491185662979 -0.7340857780295252 1.2990833215394602
C -0.8348489310509705 -0.7352912497679011 -0.47921099294686087
H -0.6901628002589392 -0.8783748457949192 -1.5568561571905173
C -1.4806730237423247 0.6426893077463798 -0.2828751214873911
H -2.3647010948991 0.743768868205948 -0.9221260337872953
O -0.6017116073525678 1.679071298601888 -0.7080181006472879
O -1.8339080937598273 0.7619677677649663 1.081961966286489
O -1.7118538861716033 -1.778235042154547 -0.058360506732308054
O 1.1845985631697173 -2.0529719170029477 -0.02103498922546228
O 2.6274782596310122 0.4280410576299572 0.4542832740827914
H 1.2294172291434389 2.5174654156948977 -0.425852142737082
H 0.5174675869521562 1.8345159439690484 1.0576995164209286
H -2.4904334528963235 1.4670977386790065 1.16036778073455
H -1.8973556570604733 -1.6370565801567354 0.8811907779384518
H 1.2719748615439572 -2.1626788171877367 -0.9795296357961415
H 3.03504752793034 -0.4469905885462821 0.38781499358947974
*
