! pbe def2-sv(p) def2/J RI DEFGRID1 loosescf d4 GCP(DFT/SV(P)) printgap
%output
    printlevel normal
end
* xyz 0 1
C 2.9702684445 0.5618035303 -2.6948094657
C 3.7900771764 0.761548683 -1.4361216151
O 3.4877069545 -0.2267535388 -0.4400807692
P 2.1067030447 -0.2502186204 0.3495062643
S 1.4914969667 1.5408505355 0.8746000207
O 2.3969704837 -1.2389459341 1.5509346083
C 2.865230733 -0.7725592147 2.8343363296
C 4.3003073148 -0.2953443253 2.7648679667
S 0.9543505361 -1.5724584878 -0.8336796886
C -0.3197519506 -2.0567044815 0.3717272802
S -1.2038865429 -0.672967122 1.1421587917
P -2.0425209171 0.2283309016 -0.6110323687
S -0.909118133 1.1647987386 -1.8985562079
O -3.2061388653 1.1179731149 0.0073879835
C -3.0084793159 2.4784295357 0.4263430787
C -2.2129590413 2.5654594125 1.7126677118
O -2.8107201487 -0.9642446426 -1.2980843711
C -3.8720545406 -1.7243175446 -0.6645357689
C -5.229060714 -1.1630221699 -1.0363808625
H 3.3028036017 1.2566197611 -3.459156713
H 3.0779283993 -0.4570153921 -3.0590661825
H 1.9147741769 0.7499861808 -2.491893297
H 3.6045128623 1.7542213955 -1.0116605724
H 4.8564600692 0.6294577004 -1.6241730046
H 2.2047819734 0.0325471359 3.1721211038
H 2.7579992152 -1.6422937819 3.48364406
H 4.6484505568 -0.0528966851 3.7639554309
H 4.9330059813 -1.0681045923 2.3362867547
H 4.3633377465 0.5957992703 2.141773414
H 0.1429500865 -2.6066126114 1.1881755943
H -1.0149170316 -2.6853770613 -0.1808812535
H -2.5029863232 3.0215669042 -0.3787385459
H -4.0217187634 2.8624032854 0.5545125615
H -2.6490721844 1.9213767726 2.472099541
H -1.1809656374 2.2598627507 1.5413984425
H -2.2119923437 3.591491998 2.0659158296
H -3.7468464294 -2.7379917021 -1.0502964403
H -3.723640926 -1.7119368197 0.4185352927
H -5.3432852126 -0.1576429508 -0.6406660128
H -5.3328739736 -1.1276459622 -2.1174195237
H -6.0026403452 -1.8020652532 -0.6220157623
*
