! pbe def2-sv(p) def2/J RI DEFGRID1 loosescf d4 GCP(DFT/SV(P)) printgap
%output
    printlevel normal
end
* xyz 0 1
C 5.7055738084 1.4295920102 -0.2551242702
C 4.4657644282 0.8208763346 -0.8774255932
O 3.4902590147 0.6396500747 0.1716465931
P 1.9748176033 0.3316792677 -0.171377205
S 1.0933540446 1.5993192081 -1.3792957081
O 1.2882608101 0.3233267465 1.2458138297
C 1.8850358042 -0.1295190981 2.4904478244
C 2.3063639768 -1.5824768323 2.4527530939
S 2.0361369534 -1.6490190257 -0.9518142779
C 0.2781385859 -1.7949138805 -1.3176068104
S -0.7342867125 -1.9537624192 0.19589008
P -2.108400592 -0.3853726718 -0.0490019856
S -2.3569663551 0.2900601483 -1.8766119998
O -1.7812935751 0.7280421351 1.0449337172
C -1.5409689093 2.1173535829 0.778480129
C -2.6527915873 2.9507640635 1.3838026434
O -3.2977816764 -1.187639031 0.6330521925
C -4.4793555308 -0.5645028637 1.173741554
C -5.4121587289 -0.0706946678 0.0857678023
H 5.467364922 2.3923892805 0.1881560046
H 6.0966969646 0.7719834956 0.5154598665
H 6.4574089281 1.5671742935 -1.0251190993
H 4.6751464879 -0.1568343768 -1.3188317581
H 4.0351653171 1.4742868879 -1.642993686
H 2.7332266758 0.5212010856 2.7090158599
H 1.086796218 0.0357757434 3.2161333918
H 3.1232187984 -1.7251794058 1.7489011533
H 2.6394051726 -1.8742249563 3.4440452876
H 1.4711503261 -2.2139487412 2.1571586709
H 0.1607724092 -2.7042925606 -1.9010578263
H -0.0626711321 -0.9201111953 -1.8804401148
H -0.5714321619 2.3502190174 1.2241247097
H -1.4777059472 2.2715167262 -0.3042343636
H -3.5980373663 2.7284893841 0.8934568724
H -2.7415881918 2.7416291445 2.4463939809
H -2.4208701206 4.001379979 1.2425218038
H -4.9409357739 -1.3593142076 1.762381735
H -4.1741716394 0.2528014974 1.8325316478
H -6.3124849126 0.3333056145 0.5380219298
H -4.929376018 0.7063104471 -0.5053304587
H -5.6782535893 -0.8876857004 -0.579982755
*
