! pbe def2-sv(p) def2/J RI DEFGRID1 loosescf d4 GCP(DFT/SV(P)) printgap
%output
    printlevel normal
end
* xyz 0 1
C 4.4649394849 -1.6268554627 -0.8421178582
C 4.6121622145 -0.1388500914 -0.5993866095
O 3.5146113992 0.4126977036 0.1501541332
P 2.029121922 0.480739209 -0.4213153071
S 1.8990925655 0.8879673873 -2.3272417985
O 1.3825640725 1.5738918064 0.5131508931
C 1.4975941524 1.5453657134 1.9570568523
C 2.5766984185 2.4980035843 2.4275642975
S 1.2188598548 -1.3880574282 0.2062110309
C 0.0520831203 -1.7139416238 -1.1533678395
S -1.6339588487 -1.9908126564 -0.5782150324
P -2.0247542156 -0.0126207393 0.1039681118
S -1.4483376838 1.4411479799 -1.0761629556
O -1.3156436262 0.1317803352 1.50612182
C -1.5612191832 -0.7731820769 2.6153620151
C -2.488978757 -0.1303062336 3.6249736187
O -3.5560502181 -0.0847884761 0.5155643972
C -4.6115021597 -0.6109433967 -0.3114354617
C -4.6727392498 0.0466690354 -1.6736212028
H 4.2710064213 -2.1479851533 0.0919502977
H 3.6407615624 -1.810700161 -1.5295104185
H 5.3803637186 -2.0061932383 -1.2846459806
H 4.681500127 0.3992009493 -1.549617302
H 5.4833530113 0.0831850298 0.0186038979
H 0.5107125356 1.8482539501 2.3129882321
H 1.7066592271 0.5195028981 2.2741278503
H 2.5854347132 2.5140444906 3.5129415001
H 3.5485578642 2.1761174266 2.0632824042
H 2.3754125986 3.4983783736 2.0538852269
H 0.3552465708 -2.6325343373 -1.6492674997
H 0.0779004068 -0.8650352068 -1.8429815546
H -1.9808185611 -1.705454366 2.2277548191
H -0.5746287861 -0.9672934841 3.0407247918
H -2.064429563 0.8026362197 3.9851479464
H -3.4529035902 0.0785338284 3.1684918354
H -2.6260947588 -0.8083110218 4.4613854305
H -4.4610348477 -1.68953487 -0.4093717004
H -5.514859453 -0.4115889621 0.2676514553
H -4.7601149523 1.1258960711 -1.5712669651
H -3.7656290421 -0.1690281255 -2.2369350605
H -5.5286272802 -0.334227011 -2.2213302577
*
