! pbe def2-sv(p) def2/J RI DEFGRID1 loosescf d4 GCP(DFT/SV(P)) printgap
%output
    printlevel normal
end
* xyz 0 1
C 3.3046583827 -1.4015168696 1.6907705544
C 3.0572847495 -2.1266823458 0.3785324895
O 2.7304713137 -1.1818670558 -0.6591614566
C 1.4839778147 -1.0284009324 -1.0282047203
O 0.5435378994 -1.6608917965 -0.5765732725
C 1.3290052906 0.0150436717 -2.1102520685
C 0.1723081762 0.9576714437 -1.797509306
H 0.0303285497 1.6589832893 -2.6260549024
C 0.3467623892 1.7778122199 -0.528038053
O -0.5828247626 2.3458379461 0.0073547636
O 1.5918445739 1.8249134276 -0.1348953906
C 1.9028671803 2.5728807914 1.0589201355
C 3.3941627602 2.8402049717 1.0675015477
S -1.4512411945 0.1194623231 -1.6974885195
P -1.5958629724 -0.5572615261 0.322878177
S -0.3468544196 -0.1958226494 1.7881340497
O -3.0681513135 0.0075973078 0.6790567833
C -3.3358090949 1.3760498707 0.9747395379
O -1.9633018739 -2.0918771275 0.2554547214
C -2.9307315722 -2.632483863 -0.6616543459
H 2.3958009162 -0.8993146095 2.0185874479
H 3.5972410019 -2.1214103826 2.4477782229
H 4.0947611901 -0.6664327087 1.5697396198
H 2.2342485779 -2.8398799767 0.4775893911
H 3.9590933828 -2.6300869614 0.0270201262
H 1.1131465439 -0.5003900711 -3.0482986173
H 2.2590141518 0.5747872135 -2.1997379757
H 1.3147333564 3.4953250045 1.0507250763
H 1.5872451247 1.9675729856 1.9152083204
H 3.9367040933 1.9011773084 1.0198656131
H 3.6721742571 3.4533643846 0.2155021318
H 3.6558458865 3.3583564098 1.9836331378
H -4.352539923 1.3989661818 1.3585459028
H -3.2457417797 1.9810121391 0.0724402053
H -2.6328182241 1.7460879759 1.7227853274
H -2.6075685661 -2.4582237966 -1.6879593467
H -3.9040192316 -2.1750517758 -0.4906415183
H -2.9580735766 -3.6969351201 -0.4433018465
*
