! pbe def2-sv(p) def2/J RI DEFGRID1 loosescf d4 GCP(DFT/SV(P)) printgap
%output
    printlevel normal
end
* xyz 0 1
C 5.6453544801 0.5283748427 -0.9715827692
C 4.2336066044 0.0275296195 -1.2000140832
O 3.5097273824 0.1649651924 0.0391117519
P 1.9226308815 0.1178512377 0.0861112964
S 1.0742741222 1.383384613 -1.1522860351
O 1.6155392614 0.4320383789 1.5994073627
C 2.2659659023 -0.2597890712 2.6982153747
C 3.4326144772 0.5500630299 3.2246969727
S 1.6415120653 -1.9829946057 -0.1619924241
C -0.1578664848 -2.2050321121 -0.1506340982
S -0.9935048881 -1.3293508744 -1.5198940094
P -2.0865768912 0.083689515 -0.3995586827
S -2.8230978526 1.5686814404 -1.437899114
O -1.1391325697 0.440542921 0.8253581095
C -1.2731767901 1.7173799126 1.4844234222
C -2.5444780293 1.7819135853 2.3015133448
O -3.1415731731 -0.8333694074 0.379742133
C -4.2385620703 -1.4696375996 -0.3013740567
C -5.4911371883 -0.6178296689 -0.2301817154
H 6.1233975558 -0.0517614088 -0.187678703
H 6.2116602593 0.4244508452 -1.8911357202
H 5.6278326447 1.5745053152 -0.6788836889
H 4.2251800236 -1.0280066825 -1.4842431818
H 3.7188531197 0.6112283892 -1.9703983853
H 1.484925274 -0.3690496478 3.4530430673
H 2.5923760289 -1.2449726854 2.3545333397
H 3.0986481591 1.5403956388 3.5219118529
H 3.8564335753 0.0414066241 4.0849748023
H 4.1943804109 0.6540315099 2.4571344122
H -0.5767622427 -1.870458435 0.7948281905
H -0.3099023791 -3.2709126204 -0.3035985686
H -0.3766417944 1.7905901985 2.1008878028
H -1.2533168596 2.5042292006 0.7228125155
H -2.5861084373 0.9510449509 3.0006193122
H -2.5722175099 2.720319997 2.8460898284
H -3.4065160012 1.7305590362 1.6374184514
H -3.9534950165 -1.6601622514 -1.3415423975
H -4.3747266982 -2.4190864703 0.2200251677
H -6.3103212777 -1.1460524916 -0.7070552993
H -5.7470939763 -0.415632733 0.8060259551
H -5.3315426615 0.3274397812 -0.7445284254
*
