! pbe def2-sv(p) def2/J RI DEFGRID1 loosescf d4 GCP(DFT/SV(P)) printgap
%output
    printlevel normal
end
* xyz 0 1
C 5.8132186125 -1.5465137788 -0.334788745
C 4.7707004262 -0.7104093838 -1.0512184922
O 3.4724088457 -1.2732549189 -0.774783465
C 2.4589228173 -0.8801387518 -1.5165213095
O 2.5416880193 -0.0800099217 -2.421139286
C 1.1670557574 -1.5653187904 -1.1047408631
C 0.1394301128 -0.4983969586 -0.729974966
H 0.0514278969 0.231336712 -1.5417278578
C 0.5481807384 0.2299834392 0.5372566556
O -0.1284270279 0.2340939802 1.5441832975
O 1.7027741798 0.8263635117 0.3973936101
C 2.2432801042 1.5395766872 1.5323890268
C 2.9542418374 0.588757113 2.4808057767
S -1.4900989574 -1.2592740614 -0.4416561567
P -2.5151098208 0.4633694513 0.2593246719
S -1.7917570328 2.2018325949 -0.2813526781
O -3.986824309 0.1889801734 -0.3227071322
C -4.2590845786 0.2498668198 -1.7257077692
O -2.8311359792 0.3500879936 1.799514675
C -3.3329478212 -0.8600241311 2.4019088891
H 5.6240968306 -1.549493624 0.7346102611
H 5.7845447688 -2.569926957 -0.6966199911
H 6.7967904786 -1.1288394849 -0.5218421764
H 4.9220788738 -0.7077627983 -2.1348954934
H 4.769466297 0.3269686205 -0.7028922458
H 1.3557578949 -2.2384328019 -0.2693908261
H 0.7855000812 -2.1331388992 -1.954692747
H 2.9301042341 2.2603516335 1.0886725341
H 1.4224456414 2.0595462556 2.0344009997
H 3.4382682501 1.1632576502 3.2634596021
H 2.2388183375 -0.0936392062 2.9337229652
H 3.7010111513 0.0128191069 1.9409990173
H -3.8186946555 -0.6120761487 -2.2268904086
H -3.8556368691 1.172750481 -2.1457965608
H -5.3422354358 0.2343665073 -1.8144344623
H -3.4939332778 -0.6066067333 3.4463414575
H -2.5890134827 -1.6508796781 2.3087083105
H -4.2644773555 -1.1567644212 1.9233806804
*
