! pbe def2-sv(p) def2/J RI DEFGRID1 loosescf d4 GCP(DFT/SV(P)) printgap
%output
    printlevel normal
end
* xyz 0 1
C 3.8933862422 0.6082636254 -2.6867905942
C 2.5377195058 0.4356595021 -2.0329981679
O 2.7150506313 -0.3378665516 -0.8334847888
P 1.9082935903 -0.1127231101 0.5120064364
S 1.4684888905 1.7483516013 0.9168645691
O 2.8587850833 -0.6774076095 1.6369968401
C 3.2686994164 -2.0511010775 1.8436517297
C 4.0484615276 -2.6148709663 0.6756114613
S 0.3672023652 -1.5903131546 0.3750187429
C -0.5576096094 -1.179862103 1.8716771503
S -1.5303106309 0.3687438807 1.7810126752
P -2.0981961951 0.394074297 -0.2475014839
S -0.868064637 0.763391931 -1.740694688
O -3.3054469377 1.4326666895 -0.2297140383
C -3.1225513617 2.8339081846 -0.4874789693
C -2.3367830586 3.5122472775 0.6164142544
O -2.853829545 -0.99363276 -0.2947867975
C -3.2732926423 -1.6136862548 -1.5343452787
C -2.3115337806 -2.7180224536 -1.9242595627
H 4.5593587395 1.1547984415 -2.0244455786
H 4.3273151115 -0.3630805966 -2.9050084073
H 3.7707747496 1.1645255167 -3.6101625883
H 1.8418323833 -0.1031066056 -2.6807881962
H 2.0916264228 1.4015774255 -1.773427145
H 3.8807443163 -1.990399017 2.7449976105
H 2.3778447063 -2.6541021108 2.0375186475
H 3.4066296148 -2.7055251331 -0.1975487301
H 4.884200483 -1.9647477068 0.4313659041
H 4.4242840202 -3.5974607477 0.9440783321
H 0.1223802254 -1.0485450909 2.7122869657
H -1.240761349 -2.009037498 2.0407067894
H -2.6097029249 2.9464916918 -1.4487149816
H -4.1388465437 3.2233594235 -0.5591314919
H -2.8003203438 3.3243677658 1.5818567895
H -1.3149113724 3.1295653419 0.6414620436
H -2.3017517093 4.5812397713 0.4330994491
H -4.2702993247 -2.0029533281 -1.3233226655
H -3.3324533831 -0.8516768119 -2.3162107808
H -1.3298751795 -2.3003867017 -2.1363107687
H -2.2157418256 -3.4364109426 -1.1154116477
H -2.6843837402 -3.2184252273 -2.8119815105
*
