  22
        -26.19677191
 C         -4.1358384308        0.2420085527        0.0238473390
 C         -2.8091106307       -0.4993467323       -0.0936128305
 C         -1.6165869017        0.4422380100        0.0572114078
 C         -0.2872614995       -0.2980815159       -0.0597717103
 C          0.9056725522        0.6431167215        0.0842360737
 C          2.2322583931       -0.0714164703        0.0242781048
 O          2.3303085439       -1.2823894047        0.0573262865
 C          3.4295058322        0.8291930347       -0.0888267754
 H         -4.2168926959        0.7257572018        0.9945788665
 H         -4.2153347851        1.0051631447       -0.7470086205
 H         -4.9693453089       -0.4469833226       -0.0873132056
 H         -2.7547543250       -0.9960609079       -1.0649286362
 H         -2.7552129682       -1.2737114938        0.6749023773
 H         -1.6717678004        0.9370788243        1.0295045556
 H         -1.6703806760        1.2147299784       -0.7132774690
 H         -0.2238699046       -1.0717087704        0.7086981415
 H         -0.2293676764       -0.8028092432       -1.0269442092
 H          0.8578242806        1.1539292474        1.0495233147
 H          0.8856948823        1.4121108096       -0.6896199495
 H          3.3165922805        1.7041568349        0.5431626475
 H          4.3347739808        0.2860750490        0.1677207993
 H          3.5073821918        1.1634414259       -1.1217116561
