  17
  -25.2494745200000       8.341954300163679E-002 !mtd4
 C         -3.2991156587        0.2609944365       -0.0087472212
 C         -1.8164214656        0.0873110804        0.0086998943
 C         -0.9732532932        1.1982524807        0.0061472068
 C          0.3952351121        1.0437826704        0.0014515467
 C          0.9612747404       -0.2361158447       -0.0007207302
 C          0.1189492718       -1.3518408775        0.0004167864
 C         -1.2494897282       -1.1863789663        0.0051336329
 C          2.4031998053       -0.4034464929       -0.0029234375
 O          3.2254676661        0.4941666642       -0.0026898230
 H         -3.5895854761        1.1628768690        0.5231837504
 H         -3.6410419901        0.3549603513       -1.0392100443
 H         -3.7968666552       -0.5966627971        0.4348722338
 H         -1.4012470801        2.1893203964        0.0090083052
 H          1.0574401792        1.8968932695        0.0010815523
 H          0.5502710494       -2.3417828938       -0.0006798663
 H         -1.8939888341       -2.0524236887        0.0071446132
 H          2.7417705203       -1.4571244666       -0.0054081029
  17
  -25.2494745000000       8.341777753788476E-002 !gc
 C         -3.2993438165        0.2591105333        0.0128374155
 C         -1.8163257060        0.0884779261       -0.0070616723
 C         -0.9730109915        1.1989786959       -0.0056842735
 C          0.3956356276        1.0440351895       -0.0025437995
 C          0.9612854913       -0.2358814359       -0.0009247438
 C          0.1185660324       -1.3514922532       -0.0013660096
 C         -1.2496249753       -1.1856047648       -0.0043238508
 C          2.4031583004       -0.4035831144        0.0005991931
 O          3.2256026057        0.4938342615        0.0013822524
 H         -3.5893735912        1.1922129823       -0.4621059156
 H         -3.7923892327       -0.5699069290       -0.4873006068
 H         -3.6473739054        0.2840858346        1.0452389161
 H         -1.4003434123        2.1903295117       -0.0085385553
 H          1.0580334058        1.8970245059       -0.0030777346
 H          0.5496723826       -2.3415250010       -0.0004299659
 H         -1.8946960500       -2.0512194744       -0.0053866671
 H          2.7415427141       -1.4573320665        0.0005675149
  17
  -25.2494740000000       8.337365308084091E-002 !gc
 C         -3.2995185439        0.2580013938       -0.0095508862
 C         -1.8162646916        0.0892084638        0.0086844595
 C         -0.9729533150        1.1994152691        0.0066558875
 C          0.3958357283        1.0441913438        0.0022084561
 C          0.9612830805       -0.2356487144       -0.0001916989
 C          0.1183425829       -1.3512805381        0.0006913395
 C         -1.2496296259       -1.1851591162        0.0051129965
 C          2.4031240666       -0.4036502492       -0.0026703514
 O          3.2257932784        0.4935660375       -0.0038251288
 H         -3.7875175061       -0.5462350093        0.5343618097
 H         -3.5879058203        1.2127093053        0.4210729289
 H         -3.6550557239        0.2301505093       -1.0393146117
 H         -1.3997894575        2.1909858049        0.0094222897
 H          1.0581835432        1.8971923047        0.0022179035
 H          0.5494563853       -2.3413125290       -0.0002903370
 H         -1.8951371433       -2.0504515354        0.0067409890
 H          2.7412494284       -1.4574703892       -0.0038637224
  17
  -25.2494739500000       8.336924191900681E-002 !mtd1
 C         -3.2989568160        0.2620775338        0.0118578716
 C         -1.8164829493        0.0866288180       -0.0068186484
 C         -0.9733538217        1.1978264410       -0.0050649331
 C          0.3950324556        1.0436286537       -0.0019668825
 C          0.9613116153       -0.2362906294       -0.0005900973
 C          0.1191821653       -1.3520283498       -0.0010293375
 C         -1.2494061155       -1.1868132142       -0.0040751028
 C          2.4032140031       -0.4033829367        0.0005501938
 O          3.2252552352        0.4943724379        0.0006475957
 H         -3.6349098144        0.4032057432        1.0388421781
 H         -3.5910945826        1.1402637965       -0.5577111349
 H         -3.8003428782       -0.6132493395       -0.3910516521
 H         -1.4017682391        2.1887498338       -0.0073264030
 H          1.0571532853        1.8968129531       -0.0022658164
 H          0.5505953283       -2.3419378881       -0.0006876880
 H         -1.8935158223       -2.0531241620       -0.0053707502
 H          2.7420789751       -1.4570601453        0.0003411819
  17
  -25.2494738300000       8.335865608298954E-002 !md1
 C         -3.3093517542       -0.0263823977       -0.0100290528
 C         -1.8180362592        0.0403773693        0.0086657232
 C         -1.1627377174        1.2711414043        0.0079011066
 C          0.2138142880        1.3398901393        0.0039090079
 C          0.9755345016        0.1675448357        0.0003714421
 C          0.3208031522       -1.0692213654       -0.0001861802
 C         -1.0552913785       -1.1270294652        0.0041019220
 C          2.4256597786        0.2329137282       -0.0018644140
 O          3.1826256639       -0.7203863300       -0.0053636844
 H         -3.6635641037       -0.9276708466        0.4825931749
 H         -3.7434438682        0.8444491006        0.4732683543
 H         -3.6582796091       -0.0480708501       -1.0422307000
 H         -1.7448907955        2.1802658216        0.0109547717
 H          0.7137994126        2.2969778852        0.0043340050
 H          0.9212518535       -1.9668681661       -0.0019095126
 H         -1.5517395240       -2.0856428330        0.0051563467
 H          2.8376606424        1.2601033840       -0.0003879796
  17
  -25.2494738300000       8.335865608298954E-002 !input
 C         -3.3093705057       -0.0262498305        0.0116198013
 C         -1.8180343239        0.0402870745       -0.0071246200
 C         -1.1627459226        1.2710820681       -0.0039655363
 C          0.2137837055        1.3398801805       -0.0004970605
 C          0.9755397386        0.1675329820       -0.0001704507
 C          0.3208461740       -1.0692330812       -0.0016185402
 C         -1.0552661467       -1.1270754575       -0.0050956019
 C          2.4256625152        0.2329222664        0.0003815997
 O          3.1826197128       -0.7203811261       -0.0000623557
 H         -3.6585502476       -0.0432985634        1.0438053423
 H         -3.7431952178        0.8426510596       -0.4754074656
 H         -3.6637162484       -0.9295052286       -0.4772440456
 H         -1.7449568086        2.1801695326       -0.0054171913
 H          0.7137456770        2.2969874884        0.0000710411
 H          0.9212961942       -1.9668790673       -0.0018751262
 H         -1.5516424456       -2.0857219916       -0.0074873134
 H          2.8376618046        1.2601068935        0.0016515272
  17
  -25.2494737800000       8.335424571462174E-002 !gc
 C         -3.3092996046       -0.0270143006       -0.0119900583
 C         -1.8180529064        0.0407928741        0.0085077700
 C         -1.1626861037        1.2713973255        0.0090948024
 C          0.2139698618        1.3400014549        0.0057458167
 C          0.9755423467        0.1676319203        0.0016069731
 C          0.3206671692       -1.0691344517        0.0006756433
 C         -1.0553504569       -1.1267803481        0.0042558630
 C          2.4256693927        0.2328631902       -0.0018135680
 O          3.1825484180       -0.7204950737       -0.0077086394
 H         -3.6553952796       -0.0763265581       -1.0441883057
 H         -3.6640944393       -0.9158013477        0.5025913603
 H         -3.7454474864        0.8554383498        0.4476347573
 H         -1.7445744260        2.1806821399        0.0133084375
 H          0.7139946808        2.2970726000        0.0076077581
 H          0.9210891272       -1.9668023887       -0.0014174979
 H         -1.5520781157       -2.0852507824        0.0048870133
 H          2.8377505076        1.2600202053        0.0002816912
  17
  -25.2494737300000       8.334983557959925E-002 !mtd8
 C         -3.3092681091       -0.0279450852        0.0125334398
 C         -1.8180739260        0.0413908000       -0.0070518875
 C         -1.1626228246        1.2717885659       -0.0044743479
 C          0.2141448626        1.3401550401       -0.0011347535
 C          0.9755465892        0.1677512944       -0.0005025388
 C          0.3205048386       -1.0689975388       -0.0021859930
 C         -1.0554301935       -1.1263917015       -0.0054338786
 C          2.4256997072        0.2328054851        0.0011858751
 O          3.1824935957       -0.7206961200        0.0002295492
 H         -3.7467712040        0.8696637099       -0.4151604306
 H         -3.6633191229       -0.8983080144       -0.5333036898
 H         -3.6546246754       -0.1155718785        1.0424078632
 H         -1.7442191122        2.1812715703       -0.0062934300
 H          0.7143102798        2.2971579074       -0.0008878765
 H          0.9208042616       -1.9667433305       -0.0022755097
 H         -1.5524585065       -2.0847050566       -0.0076016126
 H          2.8379013780        1.2599348202        0.0036525050
  17
  -25.2494734300000       8.332337966933707E-002 !md2
 C         -3.3092156110       -0.0286583980        0.0124724167
 C         -1.8180716504        0.0418603662       -0.0068263071
 C         -1.1625517691        1.2720889037       -0.0044659339
 C          0.2143129801        1.3402572721       -0.0015156803
 C          0.9755611733        0.1678482482       -0.0008863353
 C          0.3203598259       -1.0689028325       -0.0020597894
 C         -1.0554979745       -1.1261068477       -0.0050827434
 C          2.4257120519        0.2327332577        0.0002573703
 O          3.1823889580       -0.7208029069        0.0012808888
 H         -3.6628469737       -0.8838506124       -0.5572528805
 H         -3.6536079549       -0.1462669671        1.0396353403
 H         -3.7479386225        0.8799869776       -0.3897560528
 H         -1.7438969519        2.1817325842       -0.0060923074
 H          0.7145327885        2.2972182504       -0.0015580916
 H          0.9205910228       -1.9666996114       -0.0021704030
 H         -1.5528276718       -2.0842688241       -0.0071142676
 H          2.8379906828        1.2598325701        0.0005858271
  17
  -25.2494731300000       8.329693215639425E-002 !md2
 C         -3.3092023634       -0.0290596933       -0.0091012357
 C         -1.8180603014        0.0421161687        0.0083582949
 C         -1.1625006444        1.2722462492        0.0074012212
 C          0.2144211092        1.3403356155        0.0031868329
 C          0.9755682789        0.1679067107       -0.0000629904
 C          0.3202708598       -1.0688318625       -0.0002594666
 C         -1.0555332037       -1.1259567293        0.0039363450
 C          2.4257247685        0.2327194769       -0.0023946627
 O          3.1823177154       -0.7208925911       -0.0041820231
 H         -3.7481640630        0.8853560533        0.3794727348
 H         -3.6542466109       -0.1632851544       -1.0339949544
 H         -3.6619407118       -0.8755420275        0.5741286570
 H         -1.7437050473        2.1819785495        0.0108992185
 H          0.7146783922        2.2972911475        0.0040040885
 H          0.9204494991       -1.9666316609       -0.0021470705
 H         -1.5530045170       -2.0840636791        0.0049601554
 H          2.8381131630        1.2597627854       -0.0027895531
  17
  -25.2494724600000       8.323789634967961E-002 !gc
 C         -3.2997380659        0.2566226334        0.0081659906
 C         -1.8161659278        0.0901074655       -0.0064770846
 C         -0.9727829301        1.1999842638       -0.0029458953
 C          0.3961032179        1.0443504068        0.0007228367
 C          0.9612822876       -0.2354972039        0.0009941771
 C          0.1180855380       -1.3510666096        0.0004578277
 C         -1.2496966627       -1.1845652258       -0.0032671103
 C          2.4030960616       -0.4037322935       -0.0004176298
 O          3.2259309223        0.4933373140       -0.0021287599
 H         -3.7806757587       -0.5172245677       -0.5843275043
 H         -3.6652324849        0.1695085174        1.0310206426
 H         -3.5862299304        1.2328886832       -0.3721782519
 H         -1.3990778995        2.1917916147       -0.0048116900
 H          1.0587494483        1.8971291014        0.0011687143
 H          0.5488777956       -2.3412299313        0.0011593461
 H         -1.8957168564       -2.0494742888       -0.0049571755
 H          2.7410306183       -1.4576033352       -0.0003095474
  17
  -25.2494713500000       8.314018282501970E-002 !gc
 C         -3.2986272813        0.2648504985       -0.0086446386
 C         -1.8166450302        0.0848174978        0.0071981997
 C         -0.9737729707        1.1967465186        0.0061254807
 C          0.3943712659        1.0433436601        0.0025756940
 C          0.9612850525       -0.2365529764        0.0001863898
 C          0.1198139386       -1.3524917579        0.0011982374
 C         -1.2492197388       -1.1879777695        0.0046899939
 C          2.4032656939       -0.4031997607       -0.0033148633
 O          3.2251647177        0.4947199859       -0.0037527070
 H         -3.6220786421        0.5357410102       -1.0131611156
 H         -3.8073181822       -0.6503068648        0.2797553237
 H         -3.5943211094        1.0680423020        0.6617017970
 H         -1.4031900711        2.1872025483        0.0086560454
 H          1.0563612863        1.8966159994        0.0025873409
 H          0.5513024324       -2.3423539860        0.0004707679
 H         -1.8925387886       -2.0549046818        0.0063121464
 H          2.7422456961       -1.4567431064       -0.0060931372
