! pbe def2-sv(p) def2/J RI DEFGRID1 loosescf d4 GCP(DFT/SV(P)) printgap
%output
    printlevel normal
end
* xyz 0 1
C 1.6958080983 2.6777654599 2.1595935363
C 2.4784702238 1.3809726706 2.1776005957
O 2.4605627196 0.8249702462 0.8421726512
P 2.4100163434 -0.7253167228 0.5457785764
S 1.3952231817 -1.8172764734 1.8260514529
O 3.9581660382 -1.0803620003 0.4635708947
C 4.4501132232 -2.4315689444 0.4951130102
C 4.0711163798 -3.2054859883 -0.751064571
S 1.7273063823 -0.6900554372 -1.448679878
C -0.0268630166 -0.7674871627 -1.0365082735
S -0.5931817993 0.7829854649 -0.2681441386
P -2.6625047968 0.534063667 -0.7193917121
S -3.0846351066 -0.3678873488 -2.4002286316
O -3.2672261032 1.992668066 -0.5269279574
C -3.3401655686 2.9466651243 -1.6039337667
C -1.9714822638 3.3608422451 -2.1033406977
O -3.2639847476 -0.2367363604 0.5189395454
C -3.1139996933 0.2293957346 1.8859158514
C -2.3651645819 -0.806502516 2.6993245012
H 1.7116220596 3.1175356036 3.1514157394
H 2.1401730446 3.3680411599 1.4489570844
H 0.6680179556 2.4857491003 1.8631129768
H 2.0339900732 0.6547403939 2.8669817129
H 3.5233335062 1.5447908909 2.4502517182
H 5.5309194781 -2.3142638796 0.5838154389
H 4.0540677023 -2.9226890762 1.3899397274
H 4.5634732955 -4.172597977 -0.7375277716
H 2.9931106788 -3.3590413202 -0.7830182963
H 4.3714010868 -2.6583411596 -1.6411414709
H -0.1908794332 -1.5922339987 -0.340449517
H -0.5770593304 -0.9225122692 -1.9658381518
H -3.926737037 2.5039244122 -2.4144593729
H -3.8825872946 3.7864205638 -1.16737095
H -2.0829910501 4.1609758467 -2.8280635868
H -1.3525975592 3.7042707872 -1.2782364333
H -1.4798796083 2.5170958716 -2.5858615074
H -2.5915905756 1.1888981449 1.8814666795
H -4.1296894451 0.3680522001 2.2590180387
H -2.3393706519 -0.4934955953 3.738079139
H -2.8637026938 -1.7690137691 2.6276441563
H -1.3431549978 -0.9209683357 2.3435671116
*
