! pbe def2-sv(p) def2/J RI DEFGRID1 loosescf d4 GCP(DFT/SV(P)) printgap
%output
    printlevel normal
end
* xyz 0 1
C 2.7064490157 3.0199160402 -0.0623572665
C 3.036878319 1.6123335735 -0.5205923018
O 3.1601435186 0.7186456755 0.5997361681
P 1.9486404075 -0.1144753585 1.1995086979
S 0.4547358872 0.8897301296 1.9681517094
O 2.6395699939 -0.9552844057 2.3382597149
C 3.5494376066 -2.0701671819 2.1736006327
C 4.7570055986 -1.7379473529 1.3244343653
S 1.473025544 -1.4776867422 -0.3748173752
C -0.2227623878 -1.8999237155 0.1244844549
S -1.3793451227 -1.9036559474 -1.2768202238
P -2.0829505613 0.080668155 -1.1776523431
S -3.4850132467 0.5724684277 -2.4516505824
O -0.7047645019 0.8597435808 -1.3216391038
C -0.6923112725 2.2492814682 -1.7149582755
C -1.3014267916 3.1452132607 -0.6575526999
O -2.4496120293 0.3259527343 0.3544172254
C -3.7813608889 0.1384358729 0.8553563679
C -4.157957559 -1.3280942812 0.9281404112
H 2.6765339067 3.6835270673 -0.9208399367
H 1.7415883565 3.0386658334 0.4390910547
H 3.4638275365 3.3697491207 0.6336923435
H 4.0134191526 1.5754291942 -1.0080010741
H 2.2768393353 1.2242738216 -1.205035739
H 3.8326808718 -2.3086910724 3.1999384591
H 2.9906494899 -2.9032290271 1.7396091627
H 5.4550869797 -2.5685544066 1.3657943083
H 4.4602085943 -1.5781840127 0.2900530769
H 5.2440801801 -0.8405055582 1.6963210182
H -0.5545005062 -1.1720868242 0.8696393599
H -0.2288615243 -2.9140183089 0.5143924344
H 0.3637167072 2.4701765006 -1.8730019893
H -1.2369375927 2.3408608363 -2.6601919887
H -0.8684374211 2.9257376594 0.3162546727
H -1.1170156301 4.1835835386 -0.9135288917
H -2.3761888657 2.9780840826 -0.6032041593
H -3.7584080735 0.6014481428 1.8429959628
H -4.4753403572 0.6794651904 0.203665672
H -3.440483888 -1.8758269467 1.5339803654
H -5.1448962239 -1.4226094082 1.3694859933
H -4.1764451883 -1.7566143704 -0.073816894
*
