! pbe def2-sv(p) def2/J RI DEFGRID1 loosescf d4 GCP(DFT/SV(P)) printgap
%output
    printlevel normal
end
* xyz 0 1
C 3.2782753499 -4.4427503786 -0.6385923242
C 3.9303014567 -3.2594968921 -1.3361470843
O 3.5885531908 -2.0262812466 -0.6746642219
C 2.4751068286 -1.4133832136 -1.0252889971
O 1.7231654793 -1.7908514091 -1.895616359
C 2.2709265875 -0.1503727527 -0.2088794388
C 0.8103727658 0.2665189925 -0.2427151536
H 0.4462896743 0.2397537552 -1.2787167338
C 0.5327494017 1.6516128236 0.3014998389
O -0.4818794664 1.8999053436 0.9244376254
O 1.4559777577 2.5159546573 -0.0086048761
C 1.2848993725 3.8886672568 0.4131360624
C 1.7901931617 4.084594795 1.8326519686
S -0.222576775 -0.9066562293 0.7132002752
P -2.1109418562 -0.0386838479 0.3072683365
S -2.3215005627 1.0277441914 -1.3334768445
O -3.0091901762 -1.3680875558 0.27069314
C -2.877275323 -2.3112179639 -0.7941874024
O -2.7620215809 0.4910129657 1.6503135361
C -3.0913755781 1.8530938475 1.9339648148
H 3.5699120967 -4.4680067003 0.4075784833
H 2.1953517762 -4.3613192066 -0.7006004956
H 3.5914274041 -5.3625969135 -1.1212159511
H 3.6069765727 -3.1984578079 -2.3791287273
H 5.0174107583 -3.3106996023 -1.2758172805
H 2.8802851107 0.643036458 -0.6473601354
H 2.6101062639 -0.3319394639 0.8103973798
H 1.8723752095 4.4616410547 -0.3038374095
H 0.2260536428 4.1478778565 0.3325501923
H 2.8337487782 3.7918464118 1.9041098361
H 1.6931305832 5.1307178093 2.1031969523
H 1.2048818814 3.4861553629 2.5269157469
H -1.8912875643 -2.7781912182 -0.7716208136
H -3.0246966238 -1.8141228727 -1.7551420151
H -3.6540946942 -3.0523950123 -0.6260932864
H -3.145285178 2.4328964179 1.0110661005
H -2.3301063571 2.2735938318 2.5878103995
H -4.0612280434 1.8325423688 2.4263614216
*
