  8
        -14.95353967
 C          1.2330552899        0.5705852527       -0.0000427374
 C          0.2910370708       -0.6119357523       -0.0000420413
 Br        -1.5627800993        0.0269522497        0.0000071369
 Cl         2.9193489936       -0.0444403352        0.0000163267
 H          1.1143325905        1.1829317934       -0.8936826550
 H          1.1143812416        1.1828725655        0.8936346421
 H          0.4069143090       -1.2232741017        0.8932773238
 H          0.4068866127       -1.2232785334       -0.8933591160
  8
        -14.95228758
 C          1.2680417337        0.3192732733       -1.1593726900
 C          0.0354598165       -0.5514402856       -1.1337072066
 Br        -1.2270906446        0.0014706283        0.2746779505
 Cl         2.2475923277        0.0936811885        0.3343092723
 H          1.9029607746        0.0352393574       -1.9978537746
 H          1.0171102108        1.3778728814       -1.2139550259
 H          0.2781183928       -1.5915444910       -0.9248044783
 H         -0.5104242063       -0.4667297268       -2.0724877739
