! r2scan-3c def2/J RI DEFGRID2 scfconv6 printgap
%output
    printlevel normal
end
%cpcm
    smd true
    smdsolvent "water"
end
* xyz 0 1
C 1.2680417337 0.3192732733 -1.15937269
C 0.0354598165 -0.5514402856 -1.1337072066
Br -1.2270906446 0.0014706283 0.2746779505
Cl 2.2475923277 0.0936811885 0.3343092723
H 1.9029607746 0.0352393574 -1.9978537746
H 1.0171102108 1.3778728814 -1.2139550259
H 0.2781183928 -1.591544491 -0.9248044783
H -0.5104242063 -0.4667297268 -2.0724877739
*
