! pbe def2-sv(p) def2/J RI DEFGRID1 loosescf d4 GCP(DFT/SV(P)) printgap
%output
    printlevel normal
end
* xyz 0 1
C 4.255687942 -0.4150521237 -2.4794685261
C 2.8661631417 -1.0120180168 -2.4110305979
O 2.4490169674 -1.231462921 -1.0464815281
P 2.0831725776 -0.0388631625 -0.0736021592
S 1.3602229223 1.5687740216 -0.9442219235
O 3.4550703119 0.2427242661 0.6838043444
C 3.6725020365 1.4345697399 1.453318283
C 2.8023299567 1.4725374852 2.6936036792
S 1.0188249296 -1.1531427938 1.3741782764
C -0.1695769731 -2.0345613394 0.3081229197
S -0.9971181186 -1.0031262617 -0.9276862663
P -2.1805259663 0.1883415447 0.3970368374
S -1.2826137572 1.4106220774 1.6324097685
O -3.0732274913 -0.8474401296 1.18339091
C -4.1766320244 -1.6074317142 0.6214655217
C -3.7479788121 -3.0078919104 0.2300304294
O -3.2241312609 0.8719229581 -0.5864742098
C -2.9788432064 2.1186120633 -1.2592909552
C -2.1350216115 1.927338795 -2.5029579665
H 4.9558991986 -1.0268563399 -1.9168935797
H 4.5732833972 -0.3579318342 -3.5157891507
H 4.2470438729 0.5883968007 -2.0556964482
H 2.8275945493 -2.0055922715 -2.8589519481
H 2.1369361096 -0.354056311 -2.8943911297
H 4.7332259058 1.3971958549 1.7048455636
H 3.4686581641 2.3026699147 0.8170982167
H 3.0633311868 2.337195709 3.2951932231
H 1.7501615746 1.54947958 2.4129928323
H 2.9388294713 0.5673183983 3.2805106978
H -0.9039875959 -2.4631129043 0.9878160641
H 0.3553329629 -2.8082518193 -0.2473017943
H -4.9107733119 -1.6311104419 1.4285620348
H -4.5834629157 -1.0618528081 -0.2305062394
H -3.291672365 -3.5130371241 1.0773627408
H -4.6271293731 -3.5651720851 -0.0784910047
H -3.0420644531 -2.9803814251 -0.5962595509
H -3.9773073035 2.4842459227 -1.5049584678
H -2.4931139133 2.8066878215 -0.5594969498
H -2.5560629324 1.1442543501 -3.1278284048
H -2.1044971971 2.8579773552 -3.0601010424
H -1.1160365402 1.6556177957 -2.2319305039
*
