! pbe def2-sv(p) def2/J RI DEFGRID1 loosescf d4 GCP(DFT/SV(P)) printgap
%output
    printlevel normal
end
* xyz 0 1
C 5.7115097713 0.0710623769 0.0179477283
C 4.7702498908 -0.1769255256 -1.1421353617
O 3.6202894618 0.7077121549 -1.0854156448
P 2.2703135093 0.3561656828 -0.3670242805
S 0.9142391674 1.7332220097 -0.6762174168
O 2.7291662167 0.1914089049 1.1498742222
C 1.8284907828 -0.0413401378 2.2477160816
C 1.8328198639 -1.505178763 2.6447771962
S 1.7949118157 -1.6003622377 -1.0832857487
C 0.0143383426 -1.4324897239 -1.2963200556
S -0.9016365756 -1.5503651484 0.2865492377
P -2.2013506126 0.0959475518 0.1153273803
S -2.4969101121 0.8575861932 -1.6714912887
O -1.5970552804 1.0334854902 1.2423191318
C -1.8833932124 2.4426796699 1.31446691
C -3.3507625931 2.7172073369 1.5647647243
O -3.5276062466 -0.4053341803 0.8389705123
C -4.6014244265 -1.0490441385 0.1337037738
C -4.2024984938 -2.4076377895 -0.4061047276
H 6.0144470297 1.114465307 0.0351268855
H 5.2249943635 -0.1670389798 0.9593751243
H 6.5900627585 -0.5553578619 -0.1009258457
H 4.4175361833 -1.2115537917 -1.1566422671
H 5.2414331326 0.0656699726 -2.0961297429
H 2.2069170924 0.5881047092 3.0557438183
H 0.8239570918 0.2982191338 1.9739535701
H 1.4411315035 -2.1253297528 1.8417803381
H 2.8449204095 -1.8235757232 2.8770508878
H 1.2050153413 -1.6340482589 3.5204162941
H -0.285388506 -2.2648183597 -1.9276512398
H -0.2216734533 -0.4732685121 -1.7636433914
H -1.2577111112 2.7923159443 2.1370763266
H -1.5464341972 2.9075285073 0.3815352335
H -3.6876721444 2.1764959948 2.4454522039
H -3.4952770769 3.7827642435 1.713056257
H -3.9394706909 2.3972781732 0.7055673424
H -5.3932193921 -1.1280204961 0.87976879
H -4.9201352496 -0.3924570094 -0.6823562818
H -3.4648750476 -2.2882493773 -1.1988673484
H -3.7753718895 -3.0190690935 0.3847296788
H -5.0781094581 -2.9024227589 -0.813897023
*
