! pbe def2-sv(p) def2/J RI DEFGRID1 loosescf d4 GCP(DFT/SV(P)) printgap
%output
    printlevel normal
end
* xyz 0 1
C 5.402936038 0.6752031168 -0.4056100301
C 4.8185437228 -0.6880358606 -0.7092901898
O 3.5903069126 -0.9215663895 0.0104246877
P 2.2612674014 -0.1272006418 -0.3110865848
S 1.9769807278 0.3215482082 -2.2018150775
O 2.3904958365 1.1093778625 0.6827295984
C 1.5048827853 2.2402485062 0.6604195017
C 2.1973797061 3.38725245 1.3672903733
S 0.9009408057 -1.4363440205 0.6216731439
C -0.1933879381 -1.845828529 -0.7908277218
S -1.920946357 -1.9019196647 -0.2951744816
P -2.1586065822 0.1647167698 0.1765811069
S -1.4136776751 1.3934273357 -1.1564843969
O -1.5093331321 0.4213646894 1.5936948973
C -2.0801574376 0.0532132724 2.8750503301
C -2.2090481283 -1.4449384613 3.0501591288
O -3.7076710521 0.3175447388 0.4842054231
C -4.6870076817 0.57212172 -0.539781149
C -4.813683939 -0.5771170141 -1.5178853158
H 4.743698967 1.4524125955 -0.7903131278
H 5.5125608608 0.8061199129 0.6676356202
H 6.372873544 0.7664728824 -0.8845175668
H 5.4716652553 -1.4945835615 -0.3740265351
H 4.6147894423 -0.7913337687 -1.779844141
H 1.2700126687 2.4884422141 -0.3808212076
H 0.5743828274 1.961934197 1.1651459713
H 3.1054073686 3.6601699627 0.8369598211
H 1.5284951055 4.2411039053 1.3951934482
H 2.4539672822 3.0935614095 2.3809343291
H 0.0539025654 -2.8399013174 -1.1541202708
H -0.0497598438 -1.09169933 -1.57048181
H -1.3732291584 0.4785894712 3.5892079408
H -3.0493434951 0.5460751311 2.968652822
H -1.2590384052 -1.9318041389 2.8395719929
H -2.4980919011 -1.6542721812 4.0753598858
H -2.9664455108 -1.8439988633 2.379500411
H -5.6097629444 0.7275922896 0.0211514282
H -4.4079241876 1.492443983 -1.061751108
H -4.9681881873 -1.5130840037 -0.9873336661
H -5.6547025246 -0.3924283185 -2.1785794915
H -3.9079910187 -0.6589846451 -2.1166680605
*
