! pbe def2-sv(p) def2/J RI DEFGRID1 loosescf d4 GCP(DFT/SV(P)) printgap
%output
    printlevel normal
end
* xyz 0 1
C 2.9511572802 -2.4148667895 2.2824744215
C 1.6165971349 -2.2253721077 1.5932787294
O 1.3973106903 -0.8489048932 1.2199512289
P 2.2571961107 -0.1329711658 0.0960175079
S 2.890529432 -1.2758429882 -1.3713123369
O 3.3955134014 0.5615406017 0.9581552209
C 4.599050497 1.0846374828 0.37097398
C 4.3311979571 2.299284925 -0.4942531858
S 0.9378916737 1.4397790992 -0.4068585158
C 0.0212259397 0.5230102579 -1.676369771
S -0.9564687336 -0.8384957201 -1.0046030069
P -2.6663903394 0.2814572293 -0.3626869657
S -2.8598661972 2.060460212 -1.1557090521
O -2.6771496083 0.1886023893 1.2270213238
C -1.6677401453 0.6789943642 2.1233071224
C -1.6287520582 2.1926505463 2.1900743483
O -3.9099803051 -0.6034456989 -0.7358991729
C -3.9967285694 -2.0498462836 -0.7201196753
C -3.5693513703 -2.6611912459 0.59632878
H 3.0403053743 -1.7323085566 3.1234895955
H 3.0327531529 -3.4383606836 2.6346721878
H 3.7609221589 -2.2170799137 1.5810704847
H 0.7818520422 -2.4534463609 2.2573362319
H 1.5524364106 -2.8414304487 0.6907299292
H 5.2241206407 1.3318706129 1.2299996874
H 5.0702665189 0.2909601892 -0.2179167425
H 3.7672070149 3.0436941795 0.0622912054
H 5.2750885057 2.7275225311 -0.8161712221
H 3.756931222 2.0117725506 -1.3742810403
H 0.7247975955 0.083286982 -2.3825701374
H -0.6428231928 1.2413892182 -2.1593131504
H -1.9532704074 0.2515934317 3.0867424659
H -0.6949746194 0.2785379179 1.8216702828
H -2.6165551835 2.5835162534 2.4205460267
H -0.9304930023 2.4969218502 2.9632126258
H -1.3035039816 2.6114928372 1.2396198917
H -5.0520848904 -2.2348979826 -0.9262966704
H -3.3858786212 -2.4311934946 -1.5423418652
H -3.7650680384 -3.7287681368 0.5686262725
H -2.5043432657 -2.5029013691 0.7560734173
H -4.1233839988 -2.213682513 1.4171812209
*
