! pbe def2-sv(p) def2/J RI DEFGRID1 loosescf d4 GCP(DFT/SV(P)) printgap
%output
    printlevel normal
end
* xyz 0 1
C 4.5775176993 -1.7774897649 -1.8873835081
C 4.6136389519 -0.5387107612 -1.0144790146
O 3.4853892015 0.321032562 -1.3188177895
P 2.2407009307 0.5131915203 -0.3723399592
S 1.005667463 1.7557564325 -1.2439920191
O 2.9535365059 0.9241800902 0.9825624236
C 2.322124813 1.176693937 2.2514101809
C 1.788164966 2.5921828352 2.3287709671
S 1.4946352352 -1.4422263266 0.041910218
C 0.3172457009 -1.5621274749 -1.3419388765
S -1.3278889968 -2.1344620901 -0.8402781761
P -2.1030197533 -0.3810739027 0.0426746698
S -1.0936051575 0.4562351155 1.5038296936
O -3.5715023757 -0.853117767 0.4222665091
C -3.8458419028 -1.6560890447 1.5891874928
C -4.3264706762 -0.7870503509 2.7354563039
O -2.3556304605 0.4965545993 -1.2454257257
C -2.5725612005 1.920746843 -1.1897116981
C -3.841381189 2.2656658034 -0.4412754026
H 5.4926472565 -2.3415602931 -1.7379620853
H 3.7289906001 -2.4046739209 -1.6256088789
H 4.4991245316 -1.4923330857 -2.9328501943
H 5.4917862834 0.0725303744 -1.2277871645
H 4.5938368515 -0.7962427363 0.0460478889
H 1.5198855778 0.452271916 2.4119828876
H 3.1200548011 1.0120772499 2.977847386
H 0.9789309374 2.7256774616 1.6137213216
H 1.4013502759 2.772621294 3.3262114975
H 2.5765566721 3.3062642978 2.1065137567
H 0.6803934558 -2.3074437679 -2.0444670825
H 0.2321121142 -0.5778748586 -1.8104565172
H -4.6180596992 -2.3572306449 1.2679515157
H -2.9452366815 -2.2098115614 1.8689035721
H -3.5405386899 -0.0988122884 3.0393256372
H -5.1985283925 -0.215293379 2.4307237283
H -4.5871507266 -1.4194650067 3.5778452374
H -1.6980015787 2.3868963378 -0.7246941015
H -2.6194761421 2.2151778316 -2.2388553691
H -3.7407022014 1.9790185066 0.605048414
H -4.0133737272 3.335760637 -0.4999479329
H -4.6863678503 1.7351486435 -0.8725688382
*
