! pbe def2-sv(p) def2/J RI DEFGRID1 loosescf d4 GCP(DFT/SV(P)) printgap
%output
    printlevel normal
end
* xyz 0 1
C 3.2611939117 -3.8275671868 0.2627511347
C 3.7342907232 -2.9375038167 -0.8751311219
O 2.6153795316 -2.3203385109 -1.546194296
C 2.1273742237 -1.202428386 -1.062134963
O 2.5717734514 -0.6145457911 -0.0948469467
C 0.9163274895 -0.7371274659 -1.8364664669
C 0.5425046388 0.7012283241 -1.4747153716
H 1.0177510146 1.4288603542 -2.1321863866
C 0.8628099444 1.0465935278 -0.0346663522
O 0.2168758152 0.5539201615 0.8809462837
O 1.7351205782 1.9985071946 0.0933128713
C 2.0838400991 2.4268940718 1.4281701012
C 2.799230877 3.7582164118 1.3200233968
S -1.2603878068 0.9596706972 -1.6106982908
P -2.0306214991 0.1796714657 0.215712989
S -2.3769905544 1.2048846328 1.8620137112
O -3.4148486721 -0.0375760595 -0.5831002631
C -4.6324976859 -0.4009068321 0.0682004185
O -1.6178434689 -1.3626798528 0.4115134435
C -0.9047234585 -1.8778606955 1.5322151998
H 4.1149060517 -4.3353979876 0.6989281115
H 2.7780382667 -3.23004138 1.0332328071
H 2.5557713627 -4.5663618839 -0.1072269036
H 4.2283007086 -3.517043006 -1.6545421658
H 4.3962668569 -2.150463788 -0.503856001
H 0.0978244574 -1.4158076332 -1.5769292132
H 1.0924869508 -0.8375096503 -2.9063511527
H 1.165485547 2.4954972571 2.0204650455
H 2.7237343009 1.6515334487 1.8594347352
H 2.1428526027 4.5013830346 0.8769758322
H 3.0911494571 4.0860760912 2.3120071666
H 3.6840194913 3.6532514561 0.6998420789
H -4.6442280699 -1.4735593134 0.2592529683
H -5.4301086745 -0.1248424482 -0.6171472812
H -4.7341678159 0.1443307807 1.0095795303
H 0.1664075042 -1.8592397689 1.3329193431
H -1.2578502136 -2.8975946526 1.6673012289
H -1.1102805199 -1.2755721334 2.4186687066
*
