! pbe def2-sv(p) def2/J RI DEFGRID1 loosescf d4 GCP(DFT/SV(P)) printgap
%output
    printlevel normal
end
* xyz 0 1
C 5.0109966823 1.1251066773 -0.5076073833
C 4.3176535036 0.0726761044 -1.3466185126
O 3.4593026791 -0.7852264939 -0.5708564996
P 2.2942641384 -0.2925708007 0.3890821555
S 2.7676398204 0.424080419 2.1448166135
O 1.4396720028 -1.6059263179 0.5668049333
C 1.0963096451 -2.5019284401 -0.5169994694
C 2.0429838463 -3.6828598337 -0.5473185102
S 1.1827517147 1.0279679607 -0.8743280356
C 0.3043129872 1.885137506 0.4521946267
S -0.8302425634 0.8231625935 1.3904555378
P -2.2423970924 0.3879554645 -0.1290564039
S -1.7923572382 -0.8282326357 -1.6039825034
O -2.6087073025 1.8692017036 -0.5490125756
C -3.2601499886 2.1673335722 -1.8034220102
C -4.693730304 1.6813905911 -1.8193167671
O -3.5153384925 -0.0747281732 0.7045841131
C -3.7495517641 -1.4538462899 1.0303055889
C -2.7791459535 -1.9547907617 2.0811474225
H 4.2802406996 1.8178250245 -0.0928869378
H 5.5472391532 0.6605615182 0.3164467562
H 5.7102160078 1.6764845904 -1.1278918609
H 5.035514741 -0.6187632044 -1.7915329235
H 3.7149567084 0.5375906431 -2.1319623211
H 0.0720262388 -2.8178594909 -0.3082489768
H 1.1090062884 -1.950796373 -1.4612859972
H 3.0565727764 -3.3468980002 -0.7494178309
H 2.0274576336 -4.1937401712 0.4115021982
H 1.7269052234 -4.3684384522 -1.3271642025
H -0.2454008647 2.7045119349 -0.0034626677
H 1.0285466345 2.2455060728 1.184104838
H -3.199569977 3.2538605248 -1.8775428724
H -2.6846610043 1.7040971829 -2.6113751259
H -5.2311661236 2.068683073 -0.9577355363
H -5.17774858 2.0181033939 -2.7307227397
H -4.7160757952 0.5929285591 -1.7878226302
H -4.778326104 -1.4717924283 1.3919557741
H -3.6651608497 -2.0463296499 0.1126767985
H -3.0289247043 -2.9761768303 2.3498779173
H -1.7602329109 -1.9293776194 1.692908365
H -2.8222565089 -1.3260152281 2.9669686238
*
