! r2scan-3c def2/J RI DEFGRID2 scfconv6 printgap
%output
    printlevel normal
end
* xyz 0 1
C 1.0471379375 1.3510627765 7.31708e-05
C 0.3623711375 0.1892464379 0.0001046974
C 1.0558142098 -1.0866660583 4.48109e-05
O 0.530886801 -2.1804634924 2.2605e-05
N 2.4353259805 -0.9527426675 5.187e-07
C 3.1610075733 0.2129401201 5.0033e-06
O 4.3747065564 0.2320607737 -8.44058e-05
N 2.4050653487 1.3592557079 9.5595e-06
I -1.73637094 0.1159711838 -1.53435e-05
H 0.5545342955 2.31217438 0.0001312157
H 2.9733286062 -1.8151927213 -3.79472e-05
H 2.9133528887 2.2372653806 -3.3607e-05
*
