! pbe def2-sv(p) def2/J RI DEFGRID1 loosescf d4 GCP(DFT/SV(P)) printgap
%output
    printlevel normal
end
* xyz 0 1
C 4.442496068 -1.6609077747 1.2184822743
C 4.0095798641 -0.2094535886 1.1590733928
O 3.5655834508 0.1391719093 -0.1764229749
P 2.0367397195 0.3005639755 -0.573958539
S 1.8775004283 0.8820429174 -2.4308348468
O 1.3870575422 1.2475195362 0.5427572354
C 1.3483593159 2.6756824247 0.38838861
C 2.7221746426 3.2957421408 0.5372603346
S 1.1846497781 -1.548256586 -0.0518620478
C -0.1496565227 -1.664826114 -1.2916515466
S -1.7676675846 -1.9182818795 -0.5483008737
P -2.0115232562 0.0468818059 0.2380673583
S -1.5376534465 1.4634223255 -1.0349663721
O -1.1463203695 0.2160704994 1.5438149876
C -1.418892645 -0.3650999723 2.844469313
C -1.3204443956 -1.8766109978 2.8481252017
O -3.4845507958 0.0271143995 0.826846907
C -4.6444875496 -0.4781812614 0.1391819449
C -4.8838593351 0.2094913062 -1.1881425324
H 3.5948610301 -2.3214246691 1.0522309198
H 5.1924928397 -1.8533267509 0.4564295811
H 4.8657987769 -1.8625533539 2.1974425645
H 4.8513203764 0.4589827874 1.3503358686
H 3.2042626016 -0.0033494424 1.868738389
H 0.9186806444 2.9078708945 -0.592007194
H 0.6588096942 3.0066708554 1.1669488048
H 3.3763824681 2.9338339289 -0.2558630669
H 2.6360084072 4.3748176486 0.4568498758
H 3.1525648084 3.0383181841 1.5017106621
H 0.0437707611 -2.5374642337 -1.9102172627
H -0.1497865647 -0.749227827 -1.8906162938
H -0.6525578103 0.0854219811 3.4773229367
H -2.4081368113 -0.0326478487 3.1636928501
H -0.3736263142 -2.1968035167 2.4185365358
H -1.3829007301 -2.2277054749 3.8735014728
H -2.1329361334 -2.31699427 2.2747949863
H -4.5161781335 -1.5547638643 -0.0016628233
H -5.4595473529 -0.2876172398 0.8396281381
H -4.0635418995 0.0008388185 -1.8734892618
H -5.8088304505 -0.1557088915 -1.6224136203
H -4.9491400877 1.2865256425 -1.0525231865
*
