! r2scan-3c def2/J RI DEFGRID2 scfconv6 printgap
%output
    printlevel normal
end
%cpcm
    smd true
    smdsolvent "water"
end
* xyz 0 1
C 2.9611152926 -2.7709457852 1.1400022894
C 1.6997358303 -2.2814921924 0.4585362253
O 1.52184793 -0.86881501 0.6610322104
P 2.3201810821 0.2333698792 -0.1833949063
S 3.2151363044 -0.3848526712 -1.8040063192
O 3.3460028527 0.883822362 0.829999303
C 3.0561435371 1.2158227535 2.2110720281
C 2.5560101666 2.6397320196 2.3458608486
S 0.8012176124 1.6938278249 -0.4449807274
C 0.1239886586 1.0179455095 -1.9809702324
S -0.5153813916 -0.6698107313 -1.7994045492
P -2.1030874757 -0.2094315549 -0.469830641
S -2.9779883174 1.5311093187 -0.6943885538
O -1.5726387185 -0.5139312175 0.9983573913
C -1.2676650002 0.4738697598 1.9984913233
C -1.9237176756 0.0754503497 3.305849759
O -2.953279024 -1.5015934664 -0.7997987903
C -4.3802449611 -1.5616834103 -0.5902715644
C -4.7467321721 -1.4649563724 0.8758861337
H 3.0578138356 -3.8416361121 0.9911673449
H 3.8270644462 -2.2734768567 0.7038823698
H 2.9277936314 -2.5563554405 2.2048572702
H 0.7998651776 -2.7300138299 0.8829520167
H 1.73553386 -2.4814314429 -0.6171000637
H 2.3314841236 0.4984176668 2.6029154762
H 4.0149995662 1.0854702754 2.715664163
H 3.2717501585 3.3282893532 1.9056347918
H 1.6002798304 2.7643117413 1.8401820104
H 2.4347959846 2.8739418437 3.3988671331
H 0.9093000178 0.9706086923 -2.7345668711
H -0.6801556732 1.6880635339 -2.2836403016
H -0.1799757405 0.5026914354 2.0970591971
H -1.6225682626 1.4513142107 1.6540742628
H -1.6132549808 -0.926244583 3.5885106531
H -1.6229484058 0.7768386973 4.0772966875
H -3.0058255564 0.0954141826 3.2106536132
H -4.8465542571 -0.7507940105 -1.1582801144
H -4.6635392831 -2.5243661428 -1.0179423677
H -4.5006302008 -0.4717798487 1.2495432955
H -5.813445745 -1.6298817748 0.9917912669
H -4.1999326737 -2.2081987411 1.4502871715
*
