! pbe def2-sv(p) def2/J RI DEFGRID1 loosescf d4 GCP(DFT/SV(P)) printgap
%output
    printlevel normal
end
* xyz 0 1
C 3.6651796495 -1.7407767676 -2.3582721614
C 4.0409076722 -0.3178543673 -2.0002016073
O 3.6008417851 0.0462347961 -0.6793103967
P 2.0620618253 0.1501893639 -0.2920758934
S 0.9356505072 0.9585372828 -1.6675491739
O 2.0688211528 1.0085195514 1.0278413281
C 2.8408004833 0.7066638109 2.2149947409
C 4.1785867709 1.416393196 2.18708856
S 1.6303661064 -1.8363970478 0.3510418217
C -0.0467672544 -1.5929917095 0.9812299967
S -1.2951181812 -1.4443370818 -0.3390963658
P -2.2829395104 0.2975386016 0.3881791411
S -1.1932744615 1.550192095 1.4252690841
O -3.4526084857 -0.2146786337 1.3117613942
C -4.4563459775 -1.1764346206 0.8952755848
C -4.2168731623 -2.5087708016 1.5775120747
O -3.1025306829 0.8056719228 -0.8717852927
C -2.5728477628 1.3473645338 -2.0946372486
C -2.2242045045 2.8138989781 -1.9442295161
H 4.1248244789 -2.0050529828 -3.3051700648
H 4.0028547902 -2.4282998234 -1.5866843029
H 2.5836790131 -1.8261832058 -2.456426769
H 3.604262203 0.3869838731 -2.7145244319
H 5.1226862032 -0.1834124314 -1.9596557658
H 2.2146806492 1.0651741324 3.034983091
H 2.9711201114 -0.3768588245 2.2890165093
H 4.6923254796 1.2379814436 3.1265938895
H 4.786675488 1.0433298131 1.3674224266
H 4.0292172215 2.4848670874 2.0568093042
H -0.0867739766 -0.6822926236 1.5861395399
H -0.2688966791 -2.4765822848 1.5735747727
H -5.4058465509 -0.736401637 1.203514826
H -4.4327161332 -1.2736702445 -0.1917710035
H -5.0462000622 -3.1729495864 1.3560864145
H -3.295844808 -2.9611076241 1.2185248287
H -4.1479217831 -2.3672292503 2.6524513379
H -1.69519834 0.7728152108 -2.4014997161
H -3.3802508684 1.2028677687 -2.8149944855
H -1.9135657506 3.2063054646 -2.9069141825
H -3.0829845878 3.3717042303 -1.5802893694
H -1.4021678318 2.9333598577 -1.2407689842
*
