! pbe def2-sv(p) def2/J RI DEFGRID1 loosescf d4 GCP(DFT/SV(P)) printgap
%output
    printlevel normal
end
* xyz 0 1
C 4.6315878745 -1.5907435647 -0.7084415443
C 4.6724306796 -0.1425300413 -0.2649280927
O 3.5002796015 0.2345003863 0.4770894843
P 2.0582093702 0.3390582906 -0.1870749338
S 2.0581633593 1.0325864357 -2.0239802773
O 1.2762969539 1.1585869405 0.9209022376
C 1.2318397197 2.5976461698 0.9339897416
C 2.5939391753 3.2111303904 1.1765478555
S 1.2618038973 -1.5791812494 0.1379711883
C 0.0525802913 -1.6956849172 -1.2289988689
S -1.6217287571 -2.0139246487 -0.6390567424
P -2.0206240037 -0.0893488002 0.1743553417
S -1.4128127154 1.4046721013 -0.9391362283
O -1.3979958993 -0.0133667418 1.6155086025
C -1.3415230968 -1.0722483092 2.6069897309
C -2.687313131 -1.7016091093 2.8907598591
O -3.579127058 -0.1481006482 0.4663193731
C -4.5684772805 -0.1976462047 -0.5813045656
C -5.0846767836 1.1908910461 -0.9047861389
H 4.4283354707 -2.240866466 0.1387656929
H 3.8498396282 -1.7281880759 -1.4543033803
H 5.5872052623 -1.857157752 -1.1485500164
H 4.7595408662 0.5203703982 -1.1317992967
H 5.4917110633 0.0432254473 0.4308208553
H 0.8114973925 2.9379434734 -0.0187072741
H 0.5293117417 2.8255475714 1.7374397813
H 3.2473326814 3.0098441028 0.328307838
H 2.4858629122 4.2852541959 1.2905050586
H 3.0399312638 2.7912906142 2.0744647963
H 0.3235402801 -2.5466963053 -1.8481054663
H 0.0784688599 -0.7638812003 -1.8011316077
H -0.6229158736 -1.8206646444 2.2603800005
H -0.9409635026 -0.5613528238 3.4839139371
H -3.0392700332 -2.2553748154 2.023038349
H -2.5817427274 -2.3867492808 3.7264420618
H -3.416715338 -0.9361775591 3.1422381224
H -4.1355105044 -0.6714542714 -1.4662716384
H -5.3615663324 -0.8313846844 -0.1800245611
H -5.481200377 1.6602326584 -0.0088420416
H -4.2800048303 1.810014545 -1.2959538827
H -5.8694656666 1.1170461639 -1.6506097378
*
