! pbe def2-sv(p) def2/J RI DEFGRID1 loosescf d4 GCP(DFT/SV(P)) printgap
%output
    printlevel normal
end
* xyz 0 1
C 4.4540969869 -0.4123903634 -2.1789351686
C 4.577685845 0.1031211656 -0.7600287143
O 3.5184088362 -0.3757184694 0.087339485
P 2.0076287379 0.0988753143 -0.0787057334
S 1.8513155799 1.986740706 -0.5996785449
O 1.3973425232 -0.3854547511 1.2950614383
C 1.9309435053 -0.0702414969 2.5980743386
C 1.6144235985 1.3543405082 3.0053330262
S 1.1413757842 -1.299300581 -1.4009484433
C 0.0044330571 -0.2126518279 -2.3088603728
S -1.7552760387 -0.4828792487 -1.9430939397
P -1.771620585 -0.4092319062 0.1940335657
S -1.19148964 -2.0014777194 1.1713622313
O -3.2955868034 -0.0445538328 0.4557217659
C -4.3366326686 -1.0238644404 0.2662716085
C -5.591997271 -0.5037293404 0.9363702388
O -1.0251438077 0.9247303088 0.5837340815
C -1.5506684468 2.2328629439 0.2207577507
C -2.3097293786 2.8430664244 1.3791237339
H 4.3505863079 -1.4945516008 -2.1802436713
H 3.5799829713 0.0243397405 -2.6596575338
H 5.3407215994 -0.1330507091 -2.7388820921
H 4.5624044965 1.1977613253 -0.7459413817
H 5.4840086466 -0.2625497915 -0.2755575163
H 1.4361601491 -0.7919958187 3.251488751
H 3.0078055303 -0.2555907332 2.5891915226
H 1.949070057 1.5194531127 4.0245523703
H 2.1152580153 2.0603578961 2.3451622469
H 0.5416443104 1.5218375538 2.9449783204
H 0.1082669666 -0.4368699457 -3.3677781282
H 0.2735706658 0.8268059952 -2.0983154543
H -4.4826221377 -1.1601466304 -0.8087831144
H -4.0063200293 -1.9709628981 0.7055832397
H -5.419561093 -0.3700529014 2.0006530972
H -5.8788180426 0.4489583137 0.5007534928
H -6.3933150939 -1.2206641214 0.7918283274
H -0.6668623357 2.8227200725 -0.033326574
H -2.1904568634 2.1251141081 -0.6585720985
H -2.6526209126 3.8314710116 1.0896252065
H -3.16545471 2.2247194124 1.636652094
H -1.6634585835 2.931239072 2.2483624214
*
