! pbe def2-sv(p) def2/J RI DEFGRID1 loosescf d4 GCP(DFT/SV(P)) printgap
%output
    printlevel normal
end
* xyz 0 1
C 4.3191352177 -0.737287826 -2.974161379
C 4.41077267 -0.1580998474 -1.5759061499
O 3.4225248898 -0.7584659171 -0.7155167886
P 2.068946893 0.019697065 -0.3465561629
S 1.1097793102 0.6841486055 -1.9183148116
O 2.4939692199 1.2249612494 0.5906680275
C 2.8050791584 1.1454613133 2.0005916009
C 3.9356251103 0.1841517717 2.3010501668
S 1.2137923749 -1.5169902465 0.8029170466
C -0.155555035 -1.9805898755 -0.3063270599
S -1.796552192 -1.757390822 0.4217094064
P -1.9785652644 0.3623062743 0.2939790587
S -0.6399134871 1.376552996 1.3069430408
O -3.4713147855 0.5944985335 0.7733124075
C -3.8460540236 0.4268625754 2.1576737482
C -5.1880466981 1.1000288871 2.3598616189
O -2.0218784275 0.7805685622 -1.2195072982
C -3.1566814157 0.6576914147 -2.1146450632
C -3.5204674782 -0.7829531885 -2.4048079509
H 3.3594262035 -0.4853908703 -3.4202650741
H 5.1151728613 -0.3257695511 -3.5863709774
H 4.4150120433 -1.818373358 -2.9324598966
H 4.2675612855 0.9277340748 -1.5892500762
H 5.3707017938 -0.3941896222 -1.1121471206
H 3.0668031248 2.174140307 2.2537522603
H 1.8900220534 0.8662680627 2.5301738287
H 4.1455552131 0.2137464092 3.3656296538
H 3.6540404991 -0.8311315506 2.0251647873
H 4.8297983511 0.4673360309 1.7510253738
H -0.0687682694 -3.0437798204 -0.5130138979
H -0.0751792157 -1.3842855558 -1.2198355406
H -3.8984938627 -0.6447127762 2.3658585703
H -3.0695255909 0.877426578 2.7842996084
H -5.4936603988 0.9770521394 3.3935556188
H -5.1127903451 2.1598280802 2.1325626279
H -5.9320164279 0.6506940564 1.7087269449
H -3.9966927202 1.1956338432 -1.6727112789
H -2.8107354946 1.1733518809 -3.0121747492
H -4.2971765821 -0.7995513981 -3.1631385885
H -2.6532604753 -1.3246604099 -2.7746455943
H -3.8904053592 -1.2732958731 -1.5073247435
*
