! pbe def2-sv(p) def2/J RI DEFGRID1 loosescf d4 GCP(DFT/SV(P)) printgap
%output
    printlevel normal
end
* xyz 0 1
C 4.421813997 -1.6693211884 -0.8840198004
C 4.7074383269 -0.1844819422 -0.7812690255
O 3.7160399135 0.5154192604 -0.0125465041
P 2.1987092639 0.6570848413 -0.4793365371
S 2.0002650879 0.9143525166 -2.4085301433
O 1.7390112309 1.9071636815 0.3599058425
C 1.3791279343 1.9408534905 1.7599592902
C 2.4415327631 1.3412496927 2.6548782594
S 1.2526358055 -1.0585087186 0.3617710631
C 0.2812695791 -1.6373788003 -1.0643865193
S -1.4324735025 -2.000507338 -0.626179344
P -1.9675686099 -0.0837064943 0.128929133
S -1.257147011 1.4553552868 -0.8562614727
O -1.5542828938 -0.0558093382 1.6470305158
C -1.9693659921 -1.063391336 2.6089540042
C -3.1741063577 -0.5865556776 3.3922632359
O -3.5496801689 -0.1844148847 0.1949582098
C -4.3490410392 -0.1866592252 -1.006022945
C -5.7942100851 0.0182863652 -0.6000924175
H 4.2572934425 -2.0946029202 0.1026517938
H 3.5355748174 -1.8321471118 -1.4958393406
H 5.2662197502 -2.1629083596 -1.3541655438
H 4.7514790086 0.2659116909 -1.7779315657
H 5.6363211712 0.0111778992 -0.2437645816
H 1.2384745986 3.0059856905 1.9513921393
H 0.4212462262 1.4242737782 1.8754726379
H 2.1464630839 1.4738997628 3.6911583203
H 2.5513641281 0.2774199567 2.4491189976
H 3.3956032942 1.8329081203 2.4836042609
H 0.7012023397 -2.5748193647 -1.4209175197
H 0.3175181067 -0.8670624044 -1.8405405372
H -2.1832304881 -1.993269494 2.0754997588
H -1.097748895 -1.1992366972 3.2514510518
H -2.9525754833 0.3577371921 3.8817447994
H -4.022838174 -0.4460008003 2.7284893528
H -3.4241395004 -1.3297835598 4.1427930603
H -3.995063182 0.6167130008 -1.6603953049
H -4.2069025812 -1.1465927945 -1.5097979171
H -6.4159036437 0.0199629621 -1.4892884991
H -6.1123764022 -0.783993798 0.0591052794
H -5.9059688667 0.9674196522 -0.0835134038
*
