! pbe def2-sv(p) def2/J RI DEFGRID1 loosescf d4 GCP(DFT/SV(P)) printgap
%output
    printlevel normal
end
* xyz 0 1
C 2.6134591975 2.4547373497 -1.6568727469
C 3.170378542 1.3529057656 -0.7797515961
O 2.1570409107 1.0016843709 0.1997103541
P 2.0426901614 -0.4344858362 0.839376596
S 0.5830795816 -0.4459265029 2.1426962681
O 3.5256791392 -0.6604676716 1.3617411147
C 4.1113257089 -1.934593284 1.69023185
C 3.2826542547 -2.7211727501 2.6837657876
S 1.8964636396 -1.8391783938 -0.7624429237
C 0.1326882384 -1.6700763546 -1.0684357349
S -0.2746576075 -0.0288863238 -1.760961116
P -2.1081016418 0.3714198605 -0.797224454
S -2.6906385768 -0.9780411956 0.5098780721
O -3.0141286755 0.5141755701 -2.0876938445
C -4.215378045 1.3123770239 -2.1618050688
C -5.2415796611 0.9108590824 -1.1235279671
O -2.0231946101 1.8939858623 -0.3389535223
C -1.2591274701 2.4080455381 0.7642550344
C -1.9912619342 2.2451426775 2.0809738877
H 2.3419701441 3.3135537741 -1.0498479608
H 3.3684803908 2.7484655297 -2.3787317822
H 1.7305543735 2.1019752117 -2.1844573423
H 4.0532485509 1.6804815439 -0.2283558666
H 3.4155814498 0.4631168457 -1.3666082399
H 4.2404767295 -2.4980582937 0.7622595773
H 5.0854097678 -1.6688006733 2.10447878
H 3.8074308354 -3.6324302645 2.9517568945
H 3.102329642 -2.1317485423 3.579839076
H 2.3197186966 -2.9826386038 2.2464995424
H -0.42673657 -1.7999921507 -0.1359537312
H -0.1279365411 -2.4368015989 -1.7937343114
H -3.9353763792 2.3618721318 -2.0488734543
H -4.5768426463 1.1293807645 -3.1750779324
H -4.8506830197 1.0921359382 -0.1227819669
H -6.1463784896 1.4939383366 -1.2635057827
H -5.4761417666 -0.1475496808 -1.2115582817
H -0.2851597439 1.9114347885 0.7993365999
H -1.1201531055 3.4622071483 0.5157273064
H -1.4206858547 2.7306574362 2.8661652379
H -2.9802276029 2.6917226895 2.0221296222
H -2.0903266479 1.1905057047 2.3309453371
*
