  17
        -28.17495579
 C         -1.8878363336       -1.4116804016       -0.4857148183
 C         -1.5152334261        0.0558617651       -0.2920511267
 C         -2.7536252494        0.9085886297       -0.0323260624
 C         -0.5483467445        0.2056844814        0.8877148017
 O          0.6753658969       -0.5044797722        0.6792215394
 N          1.6301579357        0.0982807824       -0.0624842736
 O          2.6147217161       -0.5601082419       -0.2099558064
 O          1.4147034823        1.1940479347       -0.4821686732
 H         -2.5065430515       -1.5287623646       -1.3709332187
 H         -2.4430402259       -1.7751852496        0.3752280754
 H         -0.9970970546       -2.0244009679       -0.6040783312
 H         -1.0169256452        0.4245235575       -1.1953138646
 H         -2.4852949384        1.9568073030        0.0678205540
 H         -3.2512700609        0.5865766817        0.8785254235
 H         -3.4502573083        0.8098640334       -0.8595303063
 H         -0.3245084006        1.2604221102        1.0695494420
 H         -0.9600383211       -0.2522274644        1.7868723133
  17
        -28.17395132
 C         -2.6570578746       -1.5952672355       -0.1302025853
 C         -1.8015365593       -0.3486446282       -0.3377119653
 C         -2.3443753643        0.8321961022        0.4624230787
 C         -0.3612468495       -0.6504801544        0.0747053068
 O          0.4447931451        0.4675146451       -0.3123866674
 N          1.7558661866        0.4079093538       -0.0102377174
 O          2.1551231972       -0.5660454229        0.5540680139
 O          2.3826469564        1.3640210681       -0.3526260925
 H         -2.2860841390       -2.4245820878       -0.7261366936
 H         -3.6824039324       -1.3917777623       -0.4236804166
 H         -2.6500592954       -1.8896128063        0.9161160475
 H         -1.7940365052       -0.0843088159       -1.3987368402
 H         -2.3784107998        0.5895756026        1.5219259107
 H         -3.3497354312        1.0773803104        0.1328746206
 H         -1.7129600515        1.7058031942        0.3232446767
 H         -0.2817659591       -0.7914165835        1.1571093069
 H          0.0160910965       -1.5482930677       -0.4241188988
  17
        -28.17394039
 C         -1.3704354187       -0.8822973343       -1.1399160690
 C         -1.7351185051        0.1629707149       -0.0879371417
 C         -2.9489522467       -0.2801662230        0.7239159283
 C         -0.5649041625        0.4072687975        0.8717000707
 O          0.5724822230        0.9310664050        0.1810875921
 N          1.6055816199        0.1027595997       -0.0977249289
 O          1.5703699670       -1.0186504606        0.3045973478
 O          2.4708913626        0.6216548789       -0.7354389781
 H         -1.0541126732       -1.8100451418       -0.6671025804
 H         -0.5660713076       -0.5287971007       -1.7831339852
 H         -2.2301245429       -1.0918143866       -1.7699976493
 H         -1.9603305621        1.1073868257       -0.5921233709
 H         -3.2083251910        0.4664850715        1.4690780318
 H         -2.7428170680       -1.2201656740        1.2293257346
 H         -3.8020337356       -0.4225996476        0.0673664767
 H         -0.8214183994        1.1703772619        1.6074182575
 H         -0.2833756685       -0.5192572230        1.3792620215
  17
        -28.17387184
 C         -2.4613578498       -0.2537322349        0.9963251821
 C         -1.6807103041       -0.6808587050       -0.2439729499
 C         -1.5558384011        0.4743643239       -1.2358555540
 C         -0.2998163434       -1.2182993147        0.1536686908
 O          0.4980771832       -0.2003542247        0.7646823485
 N          1.4540753654        0.4059037664        0.0282119591
 O          1.6578785239        0.0229796449       -1.0827381118
 O          2.0135342202        1.2869992196        0.6083797565
 H         -2.6146110080       -1.0981460468        1.6625820095
 H         -3.4317538291        0.1421848481        0.7109867754
 H         -1.9175754879        0.5178100709        1.5363105119
 H         -2.2020735293       -1.5093573376       -0.7313506500
 H         -0.9367883906        0.1944842396       -2.0857554565
 H         -1.1164097257        1.3487678912       -0.7576422424
 H         -2.5379273892        0.7566596590       -1.6040279825
 H         -0.3928678028       -1.9925272515        0.9158975335
 H          0.2303873287       -1.6121092248       -0.7170693457
  17
        -28.17367903
 C         -2.1071512727       -1.2977062044        0.8052642708
 C         -1.8760760221       -0.4486777789       -0.4421245382
 C         -2.3933426647        0.9739253407       -0.2447493614
 C         -0.3913192606       -0.4307855750       -0.8085345525
 O          0.3255240549        0.1659670186        0.2779600371
 N          1.6559849737        0.2803052246        0.1378504591
 O          2.1498295951       -0.1206301574       -0.8739945249
 O          2.2070377099        0.7848325484        1.0694996458
 H         -1.5734403453       -0.8733463734        1.6516771483
 H         -1.7594631436       -2.3155635047        0.6481297128
 H         -3.1659431459       -1.3290198829        1.0447491637
 H         -2.3975644208       -0.9054871838       -1.2882079802
 H         -3.4542767805        0.9567743482       -0.0135186563
 H         -2.2466478504        1.5654354371       -1.1448727940
 H         -1.8679338875        1.4531459563        0.5772268698
 H         -0.0103750025       -1.4440025450       -0.9683943305
 H         -0.2137290033        0.1574696990       -1.7139195181
  17
        -28.17339408
 C         -2.7450638605       -1.4679754935        0.0789301340
 C         -1.7814984086       -0.3523974957       -0.3155567459
 C         -2.0048813136        0.8942534266        0.5366160223
 C         -0.3445188917       -0.8554786143       -0.1595794131
 O          0.5535581760        0.1244834649       -0.6917700734
 N          1.6754376230        0.4274183667       -0.0052198140
 O          1.9082508811       -0.1646854723        1.0043226927
 O          2.3282082240        1.2877662464       -0.5128605514
 H         -2.5941846584       -1.7489975519        1.1181028379
 H         -2.5964659772       -2.3458703137       -0.5434567875
 H         -3.7700830191       -1.1304336429       -0.0409169643
 H         -1.9329942897       -0.0944213918       -1.3672751904
 H         -3.0256527388        1.2472933305        0.4228425303
 H         -1.3339516617        1.6939704652        0.2309389528
 H         -1.8318013368        0.6742585623        1.5880089227
 H         -0.1043286254       -1.0288926842        0.8931507992
 H         -0.1908029575       -1.7794818500       -0.7224144288
  17
        -28.17210112
 C         -1.7223166779       -1.5382228464       -0.7288849401
 C         -1.5174610473       -0.1036525421       -0.2465934204
 C         -2.8478256569        0.5347845578        0.1453653743
 C         -0.5260108799       -0.0586519212        0.9338860735
 O          0.6041926088        0.7761060715        0.6668504176
 N          1.6115724920        0.2477065995       -0.0660422353
 O          1.5134432387       -0.8837225803       -0.4289668586
 O          2.5132937027        1.0039850809       -0.2642609820
 H         -2.3878754780       -1.5525357513       -1.5874417469
 H         -2.1650468310       -2.1412301959        0.0597099763
 H         -0.7740479077       -1.9834845140       -1.0210890913
 H         -1.0848553335        0.4812966879       -1.0657228906
 H         -2.7003814803        1.5634444123        0.4632863742
 H         -3.3093504941       -0.0226887005        0.9562389572
 H         -3.5267556965        0.5318463848       -0.7028517820
 H         -0.9721806177        0.4060544370        1.8121424307
 H         -0.1732513427       -1.0620213108        1.1855771294
  17
        -28.16809821
 C         -2.5452459144       -1.5096107087        0.4530791713
 C         -1.8446194390       -0.4831791741       -0.4350156126
 C         -2.2096837009        0.9339045923        0.0028971668
 C         -0.3189962803       -0.7225702855       -0.4141658945
 O          0.3537411222        0.4573145984        0.0350531013
 N          1.6958813504        0.4087388277        0.0801164396
 O          2.2320757183       -0.6069467496       -0.2521972787
 O          2.2117145286        1.4172368118        0.4581516595
 H         -2.2382036977       -1.3883522593        1.4888966519
 H         -2.3095861211       -2.5211195814        0.1327917102
 H         -3.6216675868       -1.3750218198        0.3973900850
 H         -2.1907107510       -0.6204454983       -1.4627302313
 H         -1.7337363583        1.6732641570       -0.6348283900
 H         -1.8950614806        1.1125746474        1.0274007720
 H         -3.2862780742        1.0648088230       -0.0579652380
 H         -0.0617445624       -1.5423245510        0.2638927090
 H          0.0607938859       -0.9761919560       -1.4082013351
