  17
        -28.17495579
 C         -1.8878363336       -1.4116804016       -0.4857148183
 C         -1.5152334261        0.0558617651       -0.2920511267
 C         -2.7536252494        0.9085886297       -0.0323260624
 C         -0.5483467445        0.2056844814        0.8877148017
 O          0.6753658969       -0.5044797722        0.6792215394
 N          1.6301579357        0.0982807824       -0.0624842736
 O          2.6147217161       -0.5601082419       -0.2099558064
 O          1.4147034823        1.1940479347       -0.4821686732
 H         -2.5065430515       -1.5287623646       -1.3709332187
 H         -2.4430402259       -1.7751852496        0.3752280754
 H         -0.9970970546       -2.0244009679       -0.6040783312
 H         -1.0169256452        0.4245235575       -1.1953138646
 H         -2.4852949384        1.9568073030        0.0678205540
 H         -3.2512700609        0.5865766817        0.8785254235
 H         -3.4502573083        0.8098640334       -0.8595303063
 H         -0.3245084006        1.2604221102        1.0695494420
 H         -0.9600383211       -0.2522274644        1.7868723133
