! pbe def2-sv(p) def2/J RI DEFGRID1 loosescf d4 GCP(DFT/SV(P)) printgap
%output
    printlevel normal
end
* xyz 0 1
C 5.4856900361 -0.3996557296 -0.9489307367
C 4.1072983776 -0.0875676532 -1.4943138304
O 3.311687247 0.6026141258 -0.4979341231
P 2.2725264174 -0.1171883245 0.4443785886
S 1.625723954 1.1384244707 1.797057547
O 3.0682560622 -1.3973174614 0.9430187576
C 2.4586752539 -2.5548816825 1.5454402768
C 1.9365624048 -2.2710409229 2.939148602
S 0.8275012558 -1.0008113656 -0.8739030991
C 0.2633243533 0.5231839862 -1.6724046719
S -0.8075036041 1.557649611 -0.6430833128
P -2.5745716873 0.3521383424 -0.6771863285
S -2.6043558348 -1.012903011 -2.0789212687
O -3.7914425325 1.3314425523 -0.8730905392
C -4.3280726512 2.2392423479 0.1194080862
C -3.3407465547 3.3157822121 0.5175873027
O -2.7968447468 -0.1028778029 0.8341657631
C -1.8659786295 -0.8443250455 1.6366508906
C -1.8297762217 -2.3123217204 1.2615000958
H 5.4111570819 -1.0780452891 -0.1034682777
H 6.0810580857 -0.8616510462 -1.7302948429
H 5.9711855147 0.5152630033 -0.6205634742
H 3.5864045587 -0.9986661455 -1.8006559039
H 4.1630811695 0.6081732832 -2.3338864264
H 1.6583181752 -2.9078398455 0.888735704
H 3.2659073114 -3.2894777182 1.5673829898
H 2.7324729152 -1.8754926194 3.5648295679
H 1.1338455762 -1.5376402938 2.9023516908
H 1.5612175641 -3.190999287 3.3757554661
H -0.2901427433 0.2018632804 -2.5549082995
H 1.1179915996 1.1418182825 -1.9364342098
H -5.2011095953 2.6619208608 -0.380280404
H -4.6411544694 1.653641054 0.9854799101
H -2.9828211715 3.8472396322 -0.3607687003
H -3.830908546 4.0180637894 1.1847911471
H -2.4853393712 2.8816092426 1.0339205845
H -0.8757423534 -0.3825578166 1.550486089
H -2.2317150569 -0.7051859949 2.656125836
H -1.4476247196 -2.440159713 0.2505307846
H -1.1858901657 -2.8428872315 1.9556769835
H -2.8315561375 -2.7311652369 1.3068955182
*
