  19
        -26.30218380
 C         -2.6042147108       -0.9342664930       -0.0002419207
 C         -1.1486708919       -0.5776094250        0.0001467670
 C         -0.1814333511       -1.5706076000        0.0001376094
 C          1.1691419987       -1.2692864875        0.0000801910
 C          1.5721037760        0.0578659068        0.0000158257
 C          0.6106816300        1.0621372912        0.0000571865
 C         -0.7410259863        0.7612655477        0.0001544588
 C         -1.7531251697        1.8651867920        0.0000203668
 O          2.8867134140        0.4276018500       -0.0001770215
 H         -3.0997915508       -0.5231282779        0.8780697633
 H         -3.0983167796       -0.5263353981       -0.8809062062
 H         -2.7336664778       -2.0131047322        0.0015941494
 H         -0.4859562039       -2.6073780205        0.0000636181
 H          1.9019045118       -2.0634299872       -0.0000023365
 H          0.9463528148        2.0883683182        0.0000355615
 H         -2.3905813209        1.7969833078       -0.8801982532
 H         -2.3928141977        1.7954396023        0.8784652595
 H         -1.2633345408        2.8347991588        0.0014506629
 H          3.4552471388       -0.3565179378       -0.0001771924
