! pbe def2-sv(p) def2/J RI DEFGRID1 loosescf d4 GCP(DFT/SV(P)) printgap
%output
    printlevel normal
end
* xyz 0 1
C 4.0421442222 -1.7857267908 1.3675704408
C 2.8012228444 -2.4900561725 0.8440317504
O 2.3870326778 -1.92576699 -0.4146406999
C 1.5941463201 -0.8873009335 -0.4047432995
O 1.1811281828 -0.32718731 0.5986015811
C 1.2528649646 -0.3982792551 -1.7941211751
C 0.4524064734 0.8908116967 -1.6763871216
H 0.4396862823 1.4179549875 -2.6350430548
C 1.1064858531 1.8093132346 -0.6489166702
O 2.306875886 1.9749716168 -0.6241890962
O 0.2425955386 2.4253087868 0.1243573919
C 0.7552414307 3.3794585504 1.076619283
C 0.9595667202 4.737460097 0.4252102819
S -1.3215235631 0.6373248776 -1.3415468216
P -1.5653295988 -0.7920518305 0.2135412768
S -0.8344766069 -2.6015128596 0.0109532973
O -1.3173979079 -0.1339750853 1.6283585014
C -2.0359440497 1.0389443032 2.0571418223
O -3.1689635533 -0.8109690392 0.2061870293
C -3.9100506133 -1.449327338 -0.8381829448
H 4.8460824994 -1.8573678289 0.6404924514
H 3.825152769 -0.7352249805 1.5510348354
H 4.3531922876 -2.2507149303 2.297019397
H 1.9700727825 -2.4065522632 1.5509468501
H 2.9960027466 -3.538462158 0.6186486497
H 0.701651854 -1.1737598714 -2.3283973309
H 2.1898099363 -0.2137499575 -2.3224746306
H -0.0030932308 3.4223408347 1.8581159436
H 1.694066429 2.9906521248 1.4804797168
H 0.0332008315 5.0763757969 -0.0302267784
H 1.2705294699 5.4509786576 1.1809778413
H 1.7305331772 4.6742634383 -0.3391941323
H -1.9659318766 1.8180655807 1.2982842277
H -1.5462662394 1.3464190505 2.9776204158
H -3.0785239578 0.7830457287 2.2369033105
H -4.9173504538 -1.5739155673 -0.4489192599
H -3.469145929 -2.4202104175 -1.0702338161
H -3.9142517485 -0.8186382793 -1.7260662232
*
