! pbe def2-sv(p) def2/J RI DEFGRID1 loosescf d4 GCP(DFT/SV(P)) printgap
%output
    printlevel normal
end
* xyz 0 1
C 2.2970333026 -3.0063929495 -0.2749806854
C 2.9528740526 -2.0090448568 0.658624971
O 2.2127039939 -0.7696760567 0.6900174647
P 2.6278678039 0.4846021749 -0.2143935545
S 3.4161232892 0.0800127772 -1.9556789965
O 3.6381187699 1.3406229191 0.658116659
C 3.3811965206 1.7255394645 2.0320672661
C 2.8443932488 3.1407297331 2.1059085019
S 0.8063905256 1.5458934096 -0.2005904114
C 0.0232496823 0.6098157464 -1.5400184098
S -0.6046844863 -1.0086895612 -1.01415597
P -2.4561282103 -0.3779095412 -0.2048879053
S -2.7819846243 1.5474648131 0.0170469645
O -2.6608604254 -1.2512700618 1.108939165
C -2.2621268262 -0.7937244692 2.4116676353
C -0.7554756369 -0.7683150104 2.5696843908
O -3.4030511964 -1.1154758008 -1.2390049385
C -4.7959103597 -0.7734601794 -1.3921883853
C -5.6143610922 -1.1576220939 -0.1771610955
H 2.3308690403 -2.6392270973 -1.2983228397
H 2.8280353853 -3.951099229 -0.2190923139
H 1.2571933819 -3.1557224268 0.0013384399
H 3.9822909001 -1.806686907 0.3476786226
H 2.9427836724 -2.362748373 1.6910410515
H 2.6836662369 1.0121291323 2.4775319168
H 4.3548230553 1.64736927 2.5189807212
H 1.866203138 3.2056123929 1.6334183547
H 2.7553380041 3.4320508157 3.1477548136
H 3.5222763437 3.8220477791 1.5993167374
H 0.7635871647 0.4267279431 -2.3194419506
H -0.7973941355 1.2237864746 -1.9054873492
H -2.6811789764 0.2050876189 2.5723804587
H -2.7259826904 -1.5068973117 3.0946489068
H -0.3247184346 -0.0061903107 1.9212669333
H -0.5057968469 -0.533995135 3.5996314712
H -0.3308359155 -1.7333058358 2.3042913021
H -4.8684250122 0.3023390835 -1.5820270501
H -5.1031379137 -1.3287612808 -2.2793855526
H -6.6668268226 -0.994210581 -0.387067044
H -5.4514936549 -2.2035783974 0.0688810497
H -5.3244425048 -0.5451530906 0.6752216697
*
