! pbe def2-sv(p) def2/J RI DEFGRID1 loosescf d4 GCP(DFT/SV(P)) printgap
%output
    printlevel normal
end
* xyz 0 1
C 3.2578133987 2.1435139863 -0.7967473197
C 2.7475840599 2.3673147049 0.6111964697
O 1.6095034835 1.5303716742 0.9368696254
P 1.6438846813 -0.044241849 1.0330178044
S 0.2647611655 -0.693330051 2.264982581
O 3.1551732676 -0.2699852976 1.4915416249
C 3.8699550304 -1.5144947205 1.4269899251
C 3.2305425079 -2.6076404269 2.2583606178
S 1.6068153304 -0.8810430421 -0.935819116
C 0.1636316893 -1.9643837485 -0.8181094862
S -1.190459671 -1.5300052666 -1.9599767812
P -2.1163287522 0.0180791097 -0.8812090688
S -3.6772190464 0.8689979306 -1.7003020258
O -0.924401704 1.02210733 -0.498687191
C -0.6970371984 2.2027365878 -1.2895245302
C -0.2213095738 1.8694873127 -2.6901939872
O -2.3842318785 -0.7503863576 0.4781576437
C -3.3683181087 -0.3052720927 1.4328967305
C -3.0371525734 1.0555426057 2.0067993312
H 3.5924446363 1.1146392585 -0.9193331884
H 2.4799876845 2.3473590773 -1.5268046874
H 4.095915125 2.8099412229 -0.976371779
H 2.3617841623 3.3794695897 0.7446930362
H 3.531697246 2.17395851 1.3451921539
H 3.9417635348 -1.817313855 0.3782844435
H 4.861177039 -1.2592674643 1.8061782688
H 3.8672779516 -3.486400598 2.2473083925
H 3.0953649533 -2.2739137464 3.2843971044
H 2.2542928001 -2.8716981959 1.8550954693
H -0.2079607664 -1.9456319316 0.2099126835
H 0.4700039369 -2.9628881592 -1.1178461465
H -1.6321916212 2.7701260701 -1.3330929069
H 0.0469842554 2.7595222213 -0.7192627912
H -1.0114680634 1.3480743536 -3.2311524198
H 0.015015995 2.7887365742 -3.2168947945
H 0.6578467359 1.229544889 -2.6608087666
H -4.3427693587 -0.2887834069 0.9347616761
H -3.3486336042 -1.0804398988 2.2000474792
H -3.7520239506 1.3012745426 2.785497123
H -2.0336457766 1.0483670623 2.4263455585
H -3.0894292105 1.8115351137 1.2237455944
*
