! pbe def2-sv(p) def2/J RI DEFGRID1 loosescf d4 GCP(DFT/SV(P)) printgap
%output
    printlevel normal
end
* xyz 0 1
C 3.6696606935 1.6656634254 -0.7321392484
C 2.2694878728 1.82469935 -0.1777006438
O 1.5429696642 0.5836554188 -0.2168348533
P 1.9229837849 -0.6467960473 0.731039059
S 2.7013855833 -0.1649373021 2.4535088571
O 2.8529337173 -1.6140520533 -0.1085611009
C 2.4852454461 -2.0753101791 -1.4356206556
C 3.758934415 -2.2874542197 -2.2266367159
S 0.0795494201 -1.6704618555 0.7708996337
C -0.7298427953 -0.6199940518 2.0028669444
S -1.0759910739 1.0656240056 1.4188667884
P -2.0184375823 0.6129745948 -0.4293602056
S -0.9876185616 0.2560966052 -2.0628845916
O -3.0321562882 1.8284057748 -0.6127475864
C -2.6696929158 3.0350068498 -1.3014167993
C -1.6941715653 3.8655925154 -0.4922163383
O -2.9880550234 -0.53480709 0.0574014425
C -3.4845804705 -1.5895057919 -0.7980758621
C -3.3338136487 -2.9149624651 -0.079193625
H 3.6292878837 1.3002257128 -1.7554063991
H 4.1764467281 2.6252712898 -0.7118058892
H 4.2273869834 0.9561016774 -0.1203814894
H 1.6679813509 2.5011498932 -0.787716047
H 2.2956868144 2.1782782701 0.8580240845
H 1.9317282652 -3.0089476201 -1.3113986267
H 1.8342058694 -1.3333956752 -1.9077812966
H 4.2955568299 -1.3495166535 -2.3399299054
H 4.3999222757 -2.9966530028 -1.7108146918
H 3.5050876602 -2.6759717703 -3.2075904514
H -0.0753651811 -0.5095369877 2.8686269382
H -1.6629284071 -1.1102298195 2.2691737996
H -2.2381121247 2.7638916525 -2.2712028424
H -3.6176696583 3.5536869493 -1.4492214581
H -1.4808254923 4.7915497933 -1.0163927941
H -2.1088990336 4.0888158308 0.487294458
H -0.7656042541 3.3106925837 -0.3544733014
H -4.532279619 -1.3602238014 -1.0021486179
H -2.9196432018 -1.579684267 -1.736485268
H -3.7286988443 -3.7054305692 -0.7088203215
H -2.2835956284 -3.1122150168 0.1266744269
H -3.8813924658 -2.8967932858 0.8587953017
*
