! pbe def2-sv(p) def2/J RI DEFGRID1 loosescf d4 GCP(DFT/SV(P)) printgap
%output
    printlevel normal
end
* xyz 0 1
C 2.5427718697 -3.1104866442 -0.2908779169
C 3.3562901619 -2.1411601239 -1.1206777303
O 3.4850534079 -0.8483156946 -0.4846292045
P 2.3132650815 0.1466088776 -0.1291872816
S 2.9695137069 1.9662977054 0.1433543465
O 1.5896245073 -0.5066468335 1.1328205775
C 1.2548228062 0.2032822476 2.3361203443
C 2.3140898337 -0.0362944396 3.393233804
S 0.9338101373 -0.1364355497 -1.7348003743
C 0.1374321127 1.4795793644 -1.6088937039
S -0.751595368 1.7247319574 -0.0511812586
P -2.1863645758 0.1937683907 -0.3456615791
S -2.8247627154 -0.0646774934 -2.1725923162
O -3.3778149387 0.5481964414 0.6359774813
C -3.2614035918 0.5967818059 2.0791560816
C -2.9782449466 2.0048533227 2.5619888729
O -1.4101538899 -1.0390291163 0.3194942666
C -1.6215077317 -2.3941951892 -0.1203370433
C -2.9955848008 -2.8984190408 0.2708364397
H 1.5257683673 -2.7387314312 -0.1857966826
H 2.5200437793 -4.0748466329 -0.7885972329
H 2.9822494789 -3.2227845735 0.6965670722
H 2.9044859119 -1.995918559 -2.1057912167
H 4.3907441691 -2.4695784278 -1.2327181828
H 1.1652886902 1.2716687061 2.1162431391
H 0.2831678757 -0.1918641088 2.6383527731
H 3.2678392993 0.3618663343 3.05172348
H 2.0266774163 0.4689469688 4.3095970132
H 2.4239950086 -1.099849784 3.5849845072
H -0.5636017187 1.5443283589 -2.4407970679
H 0.8917146834 2.2649290578 -1.6567115232
H -4.2325622044 0.2469294096 2.4336897201
H -2.4783800104 -0.0963080707 2.3953283191
H -2.00462216 2.3438035176 2.2133125404
H -3.7372896465 2.686016137 2.1875536229
H -2.9905186881 2.0165811273 3.6473715631
H -1.4884096181 -2.4320406892 -1.2059449634
H -0.8285896494 -2.9596561245 0.3718810292
H -3.7603985034 -2.2892607727 -0.2108764078
H -3.1074878981 -3.926897073 -0.0574613538
H -3.1294987936 -2.8478372552 1.3483701928
*
