! r2scan-3c def2/J RI DEFGRID2 scfconv6 printgap
%output
    printlevel normal
end
%cpcm
    smd true
    smdsolvent "water"
end
* xyz 0 1
C 4.6291548477 -3.2345930692 -2.018004124
C 3.632125321 -3.5911737969 -0.9268473381
O 3.2732759884 -2.4287377829 -0.1545430633
C 2.2919851691 -1.6636898399 -0.5906353981
O 1.63942396 -1.8772512759 -1.5872419743
C 2.0871910144 -0.4708161093 0.3257923106
C 0.7187811648 0.1475959113 0.0923407108
H 0.5484227228 0.258901881 -0.987197919
C 0.5262241459 1.5107667604 0.7253356229
O -0.5096898755 1.8298378144 1.2744165647
O 1.5633786946 2.2881073563 0.5825970646
C 1.456471737 3.6429662314 1.0761254275
C 2.7440792433 4.3655249975 0.7370224324
S -0.6023233754 -0.9415990006 0.72715553
P -2.2628622492 0.1955941145 0.0487778822
S -1.9754096382 1.4295616961 -1.442846308
O -3.2860712406 -0.9895672795 -0.3286967622
C -3.057366408 -1.8284183196 -1.4626247457
O -3.0470262401 0.8179831335 1.2676005368
C -3.3848627864 0.055576752 2.4427309364
H 4.1731807219 -2.5540817901 -2.7335327945
H 5.5050800763 -2.7598528246 -1.5847713686
H 4.9315090213 -4.1383322477 -2.5366583324
H 4.0665637551 -4.2767408785 -0.1994002824
H 2.7220096415 -4.0173792278 -1.3579936734
H 2.8567242112 0.2697995039 0.0967779314
H 2.2094843343 -0.7944852856 1.3591985291
H 0.585983019 4.1082314813 0.6035474575
H 1.2815924572 3.5992503827 2.1550291137
H 2.8994930254 4.3643418461 -0.337583451
H 2.6787257611 5.3903450353 1.0865988965
H 3.5859395954 3.8763642919 1.2170096892
H -2.9034619826 -1.2183798512 -2.3543996125
H -3.9535409071 -2.4345692359 -1.5649547365
H -2.1829158944 -2.4580373825 -1.2937976707
H -2.4831366011 -0.3779854957 2.8754318961
H -4.0931354081 -0.7293671367 2.1833214541
H -3.8303341787 0.7749199321 3.124821382
*
