! pbe def2-sv(p) def2/J RI DEFGRID1 loosescf d4 GCP(DFT/SV(P)) printgap
%output
    printlevel normal
end
* xyz 0 1
C 3.5241858789 1.6472214664 -1.9350410176
C 3.4126419207 0.1428159139 -2.0669999628
O 2.2588400137 -0.3787961879 -1.3718695302
P 2.0260409627 -0.264292023 0.1817224623
S 1.3581045652 1.3996416066 0.9938479834
O 3.471793942 -0.664416507 0.7247089357
C 3.829775909 -0.573792102 2.1162738198
C 5.3341000382 -0.4110890867 2.2071185744
S 0.8373519261 -1.9776612165 0.5103560762
C -0.471190751 -1.2889230803 1.580747858
S -2.1263433041 -1.3539957555 0.8519412705
P -2.0318264789 0.324589087 -0.4561672487
S -0.7188035641 0.3199291496 -1.9074599387
O -1.8501884778 1.5675813619 0.492637046
C -2.7022400324 1.8790089252 1.623535807
C -3.8111516656 2.8286285978 1.220589099
O -3.540787019 0.4495355315 -0.9421375683
C -4.042311589 -0.2447247185 -2.0976332107
C -4.0575606361 -1.7466764705 -1.9017145946
H 2.6022738981 2.1194808015 -2.2693610913
H 3.6939680817 1.9213663423 -0.8940513664
H 4.3523678126 2.0053950603 -2.538183746
H 4.3029764001 -0.3556413984 -1.6774043784
H 3.2353437512 -0.1560685546 -3.1014357394
H 3.3071870364 0.2829566559 2.5558017787
H 3.4983157829 -1.491570006 2.6084882956
H 5.6432929245 0.5084506925 1.7178069903
H 5.6238839552 -0.3739135106 3.2519901641
H 5.8280676863 -1.250343922 1.7260218614
H -0.2097376915 -0.2524114283 1.8168600853
H -0.5210050559 -1.9033350331 2.4753930811
H -3.1080143133 0.948140749 2.0294414029
H -2.0242646678 2.3391750244 2.3455931667
H -4.4751251676 2.3511729664 0.5052235147
H -4.3752546135 3.1073249036 2.1051729568
H -3.3894240348 3.7216741539 0.7673005597
H -5.0489260238 0.1559477462 -2.2250263905
H -3.4214621719 0.0255419337 -2.9574895568
H -4.5610300257 -2.2129679604 -2.7424658117
H -3.0374302248 -2.1249678507 -1.8492342688
H -4.5746267 -2.0037802723 -0.9806120948
*
