! pbe def2-sv(p) def2/J RI DEFGRID1 loosescf d4 GCP(DFT/SV(P)) printgap
%output
    printlevel normal
end
* xyz 0 1
C 4.5597209835 1.6536901944 -1.9485367571
C 4.9601693542 1.1391462147 -0.5810605189
O 4.2162922129 -0.0339043444 -0.2046810427
P 2.6535275056 -0.0016418286 0.0898188158
S 2.0533267597 1.5798258768 1.0865587064
O 2.4438061835 -1.4004436228 0.7960672568
C 2.5383243653 -1.5933697795 2.2245047765
C 1.6011334673 -2.7193440064 2.6098853729
S 1.7238826467 -0.3908926312 -1.7587146511
C 0.07754591 0.1651706735 -1.2769675505
S -0.6438776225 -0.9649249275 -0.0255388021
P -2.6206411679 -0.2362679237 -0.110851774
S -3.9424614337 -1.0862990387 1.0561502726
O -2.8611228163 -0.3832078099 -1.6736649
C -4.1904071627 -0.4269859434 -2.2340566941
C -4.8994920119 0.9050960553 -2.1104603442
O -2.4940694572 1.3493927138 0.0435845254
C -2.6768668994 2.0027727726 1.3095765499
C -1.5873329907 1.6475159309 2.3005132911
H 3.539890998 2.0348780485 -1.9194370671
H 5.2283004732 2.4575785158 -2.2394538812
H 4.6127724615 0.8540281133 -2.6829812673
H 4.8012716508 1.907670985 0.1822726064
H 5.9988001441 0.8065823585 -0.5623138525
H 3.5770719167 -1.838311718 2.458333709
H 2.2657732902 -0.6575672561 2.7249023075
H 0.5780541711 -2.4601861475 2.3483868486
H 1.8746399948 -3.6267754021 2.0798073723
H 1.668200357 -2.890198991 3.6793182676
H -0.5392790486 0.1464519588 -2.1708459284
H 0.1450044114 1.1657755191 -0.8486654617
H -4.0244925769 -0.7047823016 -3.2757347082
H -4.7547784704 -1.2135139757 -1.7235217036
H -4.2896026357 1.6986998437 -2.5340342875
H -5.8478396546 0.8569566569 -2.6363826341
H -5.0887696137 1.1270278244 -1.0610556477
H -2.6685242484 3.065387208 1.0640699444
H -3.6557620369 1.7159279948 1.7069894577
H -1.6211098213 0.5795439087 2.517741092
H -0.6038658035 1.8949558884 1.9061404981
H -1.7448014094 2.1973550723 3.2226624737
*
