! pbe def2-sv(p) def2/J RI DEFGRID1 loosescf d4 GCP(DFT/SV(P)) printgap
%output
    printlevel normal
end
* xyz 0 1
C 2.5774052551 -3.1705929993 -0.3684090565
C 3.3468219292 -2.1918062067 -1.230653284
O 3.5304075418 -0.9101315539 -0.5859826255
P 2.3788796514 0.1002717261 -0.1704731914
S 3.1419976205 1.8742209738 0.1269368926
O 1.6163787089 -0.533656637 1.0836249325
C 1.9816712324 -0.2288936581 2.4464695965
C 1.0503382772 0.8112182783 3.0351628843
S 0.9192673043 -0.1239233222 -1.6804496437
C 0.161845618 1.5065894412 -1.4765162065
S -0.7301132006 1.7006702184 0.0840959111
P -2.1903990989 0.2154190661 -0.2912761724
S -2.8367812355 0.0772271532 -2.1294499477
O -3.3734862324 0.531539207 0.7140853367
C -3.2420844054 0.5024103988 2.1566594293
C -2.9737063995 1.887313355 2.7102148794
O -1.4425061374 -1.0721053755 0.2962902506
C -1.647978302 -2.3880239311 -0.249031392
C -3.0253011389 -2.9206371993 0.0903921652
H 1.568788234 -2.8003246254 -0.1977238317
H 2.5226812856 -4.1264945811 -0.8797964212
H 3.0748310886 -3.302893675 0.5890631706
H 2.8355661772 -2.0263324828 -2.1827740656
H 4.3682443575 -2.5295428309 -1.4135053769
H 1.8999331211 -1.1807463254 2.9744077699
H 3.0184982658 0.1195953999 2.4721597788
H 0.0190575395 0.4828999781 2.9414396641
H 1.2909172544 0.9548087528 4.083461782
H 1.1643818113 1.7569563857 2.5096541915
H -0.5316095107 1.6271308856 -2.3087539654
H 0.9378990607 2.2721860993 -1.4863114153
H -4.203565381 0.1194744048 2.503415899
H -2.4465942135 -0.1968063557 2.4255058085
H -2.0145797973 2.2636143507 2.3597812386
H -3.7531971828 2.5727207755 2.3895669411
H -2.9620406359 1.8399337563 3.794699891
H -1.5054385942 -2.3426479063 -1.3332358895
H -0.8591423637 -2.9900355599 0.2046719575
H -3.1678460621 -2.9526343311 1.1674884045
H -3.7858594026 -2.2752539709 -0.3488912412
H -3.1348171168 -3.9205890314 -0.3172300141
*
