! pbe def2-sv(p) def2/J RI DEFGRID1 loosescf d4 GCP(DFT/SV(P)) printgap
%output
    printlevel normal
end
* xyz 0 1
C 4.9786427193 -1.2396245547 -0.9461757231
C 4.8703299637 0.2518436805 -0.7153220594
O 3.5467187354 0.7669734553 -1.0147555774
P 2.2215580493 0.3533399229 -0.2797463324
S 0.8181494608 1.7059203448 -0.5138749416
O 2.7224195646 0.142253612 1.2156124693
C 1.8083779447 -0.1500523778 2.2903959408
C 2.5596352868 0.0147253494 3.5953982996
S 1.7171254804 -1.6020897628 -0.9741828097
C -0.0558093398 -1.4219997985 -1.2300861167
S -0.9776139711 -1.2537931894 0.3358186333
P -2.397049776 0.2356003584 -0.2312861381
S -2.4343548837 0.7590278041 -2.1134830968
O -2.1717031095 1.4408000392 0.7545647576
C -2.1602962583 1.2826855098 2.1970028019
C -1.456363839 2.4877953109 2.7848717127
O -3.7745599261 -0.3444176817 0.3302298836
C -4.6336789652 -1.2110218513 -0.4306267367
C -3.9733006812 -2.5303369469 -0.7753166864
H 6.0078250202 -1.5474790538 -0.7893233063
H 4.3374968558 -1.7792405589 -0.2514136179
H 4.680205846 -1.4908973834 -1.9606648259
H 5.5113085687 0.8132016631 -1.3967148962
H 5.1078808429 0.5089942358 0.3180074445
H 0.9625112251 0.5413562206 2.2236354337
H 1.4401054716 -1.1727266396 2.1638014933
H 2.9213461357 1.034509952 3.6921729245
H 1.8910724537 -0.208739598 4.4200102604
H 3.406092606 -0.6647648703 3.625043772
H -0.3729716667 -2.3359722768 -1.7266378827
H -0.2654766607 -0.5438437326 -1.8456204521
H -3.1967339557 1.2134042182 2.5328544786
H -1.6391857009 0.350822318 2.4397609314
H -2.0128880403 3.3922148234 2.5571991949
H -1.3773922164 2.3697264603 3.8605270148
H -0.4627799923 2.5842611792 2.3530632205
H -5.4986052118 -1.3502553366 0.219516311
H -4.9320057733 -0.6829454589 -1.341383294
H -3.5715642415 -3.0003476463 0.1187967044
H -4.7067321673 -3.1874985001 -1.231354816
H -3.1646417401 -2.3617565777 -1.4855628135
*
