! pbe def2-sv(p) def2/J RI DEFGRID1 loosescf d4 GCP(DFT/SV(P)) printgap
%output
    printlevel normal
end
* xyz 0 1
C 2.2849182801 -1.4514417044 -3.3105489768
C 2.9288515092 -0.4538091524 -2.3685256794
O 2.6435910372 -0.8476361796 -1.0067316976
P 2.0787863578 0.1141436395 0.1098809509
S 1.184562185 1.7438965979 -0.5478137267
O 3.3892039331 0.4599619592 0.9462158305
C 3.4387447254 1.5272992853 1.9050773065
C 2.5675189075 1.2439349962 3.1124911576
S 1.1485021186 -1.3212295037 1.3345993144
C 0.07193535 -2.1461675597 0.1144561851
S -0.7655523457 -1.0567083235 -1.0661113998
P -1.9121105119 0.308919564 0.1117467143
S -1.38883014 0.8189266906 1.9263412945
O -3.3921926906 -0.2960626633 0.0495840724
C -4.0340821572 -0.9812612618 1.1327574242
C -3.400239299 -2.327828783 1.4199809676
O -2.0368015558 1.5656406846 -0.8244659371
C -2.0385567889 1.6106900923 -2.2690350358
C -3.1428765291 0.7743093434 -2.8780388304
H 2.5233010347 -1.1768119858 -4.332792933
H 2.6628520267 -2.4495573911 -3.1096674853
H 1.2048674732 -1.4479813339 -3.1806708659
H 2.5431323273 0.5583659356 -2.5310635803
H 4.0156699043 -0.4479658059 -2.4692511013
H 4.4938442077 1.5909455009 2.1744184758
H 3.1232892085 2.4528186849 1.4114342827
H 2.8226811614 0.2799893861 3.5460632333
H 2.7098852799 2.0234466291 3.854004428
H 1.5149947716 1.22769555 2.8239772838
H -0.6507914828 -2.7173419507 0.692219149
H 0.6796533889 -2.8032826397 -0.5051181346
H -3.9955801842 -0.3440690375 2.021826427
H -5.0662107369 -1.0857446526 0.7951368685
H -2.4157957143 -2.1782490766 1.862591192
H -4.0174417463 -2.8715743329 2.1280620481
H -3.3112662596 -2.9056766867 0.5031401345
H -2.1693824138 2.6732442681 -2.4806274517
H -1.0526823831 1.2935289112 -2.619919603
H -4.1059169482 1.0782745488 -2.4762603205
H -3.1391615876 0.9158418865 -3.9542456485
H -2.9850542986 -0.2793240701 -2.6569918796
*
