! pbe def2-sv(p) def2/J RI DEFGRID1 loosescf d4 GCP(DFT/SV(P)) printgap
%output
    printlevel normal
end
* xyz 0 1
C 4.1682171787 0.7936411046 -1.8762611529
C 4.3007253822 -0.0741076162 -0.6399722503
O 3.3444110211 0.3187606541 0.3746635101
P 2.0606124913 -0.5492966131 0.738402529
S 1.2468190888 0.1072847958 2.3858141725
O 2.496986809 -2.0828315605 0.7412255241
C 2.8579361356 -2.7585779181 1.9628048753
C 4.2316245084 -2.3356294733 2.4436964966
S 0.9166819752 -0.658922515 -1.0424845127
C 0.5347906455 1.1147659021 -1.1677970904
S -0.7836891593 1.6678994621 -0.0519780086
P -2.2962060977 0.3590102949 -0.7918571198
S -2.2569132898 -0.0180717977 -2.7066905281
O -3.6421775034 1.0042925571 -0.2440646179
C -4.3758014882 2.0001697681 -0.9817535763
C -3.6129956322 3.3021536422 -1.11291696
O -2.1652102274 -0.9575219027 0.0698774974
C -2.1871734106 -1.0038787096 1.5155690956
C -3.58890092 -1.2454286414 2.0343210223
H 4.9913065921 0.5729507919 -2.5487584919
H 3.2322107813 0.5929433388 -2.3919062389
H 4.2079821849 1.8442858049 -1.6013927652
H 5.2747270647 0.0646611537 -0.1672506772
H 4.1524904111 -1.1296977418 -0.8816504501
H 2.1012986851 -2.5364993412 2.7219370109
H 2.8247329323 -3.8170461684 1.7013146301
H 4.2262736219 -1.2711669894 2.6771920879
H 4.484336888 -2.8913846531 3.3411614545
H 4.9792514857 -2.5291726493 1.6788827564
H 0.2185404447 1.2785463853 -2.1974503151
H 1.4131874411 1.7070974652 -0.9186357011
H -4.6100808509 1.5906622395 -1.9690267574
H -5.29259962 2.1270180916 -0.4042698346
H -2.7477916495 3.1632945985 -1.7591061886
H -4.2620280796 4.0533396625 -1.551349738
H -3.2724372918 3.6425388842 -0.1380467472
H -1.5202684847 -1.83141452 1.7686115534
H -1.7693442273 -0.0740636031 1.9139351699
H -3.5481265409 -1.3635887201 3.1126298325
H -4.2320474709 -0.4049266694 1.7888947988
H -3.9994785815 -2.1467801124 1.5873050936
*
