! pbe def2-sv(p) def2/J RI DEFGRID1 loosescf d4 GCP(DFT/SV(P)) printgap
%output
    printlevel normal
end
* xyz 0 1
C 5.5867158107 -0.5676273749 0.4954046303
C 4.3810521009 -1.3332648216 -0.008904547
O 3.6887120935 -0.5842705502 -1.0410788871
P 2.4365829359 0.32694315 -0.7568443209
S 1.8348795622 1.1819447543 -2.410876078
O 2.9602170892 1.2777492861 0.4001475862
C 2.1108681419 2.197466885 1.1173343018
C 1.9346561168 1.7152700669 2.5445587649
S 1.0232955567 -0.9386227403 0.2158652141
C -0.012980756 -1.3143543026 -1.2353466833
S -1.6790907089 -1.790359255 -0.7573976791
P -2.4178222839 0.0887566398 -0.0431225176
S -1.3279797788 1.6722780956 -0.4243085401
O -2.7063778206 -0.1432014767 1.5016325351
C -1.6596299024 -0.1013192394 2.4899344656
C -2.313988158 -0.0557064238 3.8555198255
O -3.8587278928 0.2252696542 -0.6511914567
C -4.8061777311 -0.84622668 -0.8929626319
C -5.0533620263 -1.7022133656 0.3292217061
H 6.1139109379 -1.1758271737 1.223741476
H 6.253336409 -0.3377206601 -0.3312167626
H 5.2753026767 0.3636389149 0.9604377423
H 3.6787931038 -1.5502788658 0.8011577317
H 4.6769713763 -2.2612044597 -0.5012317471
H 2.625253208 3.1595554055 1.0807172147
H 1.1505196283 2.2905750129 0.6009661919
H 1.4682014602 0.7325495362 2.5540974126
H 2.9001728838 1.6525768141 3.0379168045
H 1.3027705794 2.4170518384 3.0790937684
H 0.4049208073 -2.1653669487 -1.7681697198
H -0.0390437424 -0.4234084653 -1.8690636281
H -1.0355777935 -0.9927308813 2.3726150378
H -1.0478724899 0.7879043841 2.3065070782
H -2.929848858 -0.9378175592 4.0025556621
H -1.5428313202 -0.0243186651 4.6179398602
H -2.9388352319 0.8287895704 3.9392814013
H -5.7056299661 -0.3117830654 -1.2025178332
H -4.4285123252 -1.4495943206 -1.7221211463
H -4.1496421225 -2.2478918324 0.5937779359
H -5.3528971732 -1.0815073638 1.1692871598
H -5.8423844292 -2.4140800041 0.1070505394
*
