! pbe def2-sv(p) def2/J RI DEFGRID1 loosescf d4 GCP(DFT/SV(P)) printgap
%output
    printlevel normal
end
* xyz 0 1
C 2.1256174146 2.5327521536 -0.6426247417
C 1.9706732393 1.2875125156 -1.4938296822
O 2.7304607023 0.179381194 -0.988730563
P 2.4332458822 -0.6212778366 0.3444791571
S 2.8442484464 0.2374892859 2.0639905244
O 3.3639876207 -1.8454855783 -0.0205260939
C 3.8741559243 -2.7364169794 0.9870402505
C 2.7895423937 -3.6264099421 1.5611743528
S 0.4441994763 -1.3671106929 0.1480333197
C -0.3454718872 -0.4578901434 1.5022984081
S -0.9276265168 1.2007232225 1.0409674607
P -2.2913236822 0.6765702508 -0.4913291481
S -1.6393558622 0.3215916435 -2.3129994173
O -3.3721220179 1.8429375622 -0.4360084215
C -3.2404279244 3.0473575364 -1.2085369798
C -2.063160071 3.8829581916 -0.7486099649
O -3.0701058694 -0.5010936106 0.2190589858
C -3.624652632 -1.6403481719 -0.4761701151
C -2.9980623425 -2.9131199839 0.0575068446
H 1.6480192928 3.3691848879 -1.1433581463
H 1.6628571807 2.3944927539 0.3333387606
H 3.1800398692 2.7556337031 -0.4997045953
H 2.3757539139 1.4403786451 -2.4960289974
H 0.9190492512 0.9932605897 -1.5819477919
H 4.6346677112 -3.3159837562 0.46207557
H 4.3422680838 -2.1398802836 1.7770538955
H 2.2523389293 -4.128665637 0.7606089764
H 3.2415125825 -4.3672487773 2.2128479453
H 2.0855236426 -3.0299191428 2.1395533744
H 0.3834737508 -0.2981289183 2.3001180663
H -1.1883579788 -1.0528758483 1.8418365839
H -3.1287142776 2.7715193056 -2.2623579753
H -4.1891472932 3.5636698359 -1.0574987985
H -1.1347393062 3.3431751395 -0.9362080309
H -2.0453633513 4.8187919117 -1.297730406
H -2.136585368 4.0879711013 0.3164108629
H -4.699509397 -1.6122323188 -0.2895875059
H -3.435387722 -1.5306279158 -1.5490096746
H -3.4465640614 -3.7649780805 -0.4431050477
H -1.9262938974 -2.9121067553 -0.1340929749
H -3.1687525208 -2.9969755941 1.1271183002
*
