! pbe def2-sv(p) def2/J RI DEFGRID1 loosescf d4 GCP(DFT/SV(P)) printgap
%output
    printlevel normal
end
* xyz 0 1
C 3.44784874 2.189496534 -1.3679637899
C 2.4513518033 1.0680467159 -1.5713958923
O 1.6008251337 0.9316425939 -0.4037806556
P 1.8267978732 -0.1503767183 0.7231146683
S 0.628060214 0.2199739819 2.2249019057
O 3.3816935112 -0.030059144 1.0202534911
C 4.1859369731 -1.0542912391 1.6355691696
C 3.6019563898 -1.5584428786 2.9380698112
S 1.721047864 -2.0496578106 -0.2530621845
C 0.1354485545 -1.8916015731 -1.1130798611
S -1.2820810004 -1.5922102862 -0.0147119415
P -2.0409668166 0.2179950758 -0.8566514147
S -1.0704866604 0.9241253486 -2.3979200782
O -2.245645364 1.2389296319 0.3440645925
C -1.4251919428 2.3934476822 0.5811101574
C -2.1233984979 3.634964875 0.0636498824
O -3.5218979582 -0.1557964709 -1.2564313056
C -4.4140057839 -1.0429318435 -0.5435952774
C -4.5820990232 -0.6575441878 0.9098724414
H 4.041764187 2.30095337 -2.2695904741
H 2.9250590542 3.1202468498 -1.166039306
H 4.1012609552 1.9643993661 -0.5290039749
H 2.9574852895 0.1169861844 -1.7567900542
H 1.7606210364 1.2874798959 -2.3895514221
H 4.2971812208 -1.8739834048 0.9201879875
H 5.148457821 -0.5644987108 1.7932106548
H 2.6466677614 -2.0496789105 2.7555996252
H 4.2855227703 -2.2713064974 3.3877304986
H 3.4366579972 -0.7324896492 3.6260365432
H -0.0142660547 -2.8510543298 -1.6024495588
H 0.1813487182 -1.0794947424 -1.8451199511
H -1.2785463409 2.4260665079 1.6626476911
H -0.4545779409 2.2619528826 0.0941539636
H -1.5209079939 4.5066987279 0.2972953184
H -2.2494361713 3.5659821599 -1.0153523293
H -3.1001168136 3.7352768872 0.5281798101
H -5.3492212255 -0.9526738555 -1.0981032342
H -4.0249326766 -2.0606329073 -0.6327781102
H -3.6302446901 -0.7425789076 1.4337079696
H -4.9340773673 0.3673312801 0.9928542336
H -5.3004761803 -1.3250910124 1.3754981889
*
