! pbe def2-sv(p) def2/J RI DEFGRID1 loosescf d4 GCP(DFT/SV(P)) printgap
%output
    printlevel normal
end
* xyz 0 1
C 1.8644061017 0.9499950151 -2.482315813
C 3.076803708 1.3697256786 -1.6791454864
O 3.3086377068 0.5140364172 -0.5471817427
P 2.3200451692 0.4329135178 0.6976212539
S 1.497151724 2.1058859237 1.27196882
O 3.2648442528 -0.1285687082 1.830602877
C 4.0586223932 -1.3362685279 1.6918470173
C 3.4972603156 -2.4332027804 2.5743378427
S 1.0227408683 -1.1864319883 0.2063612837
C -0.220748695 -0.8602313779 1.5011166955
S -1.9028349432 -1.2433282792 0.9640124381
P -1.9734779254 -0.1121917513 -0.854662667
S -1.276537579 -0.9948199895 -2.4591964219
O -1.2435233482 1.2539599096 -0.5356769939
C -1.8810129342 2.4440828079 -0.0071690687
C -2.3748103869 2.2669503981 1.4125391777
O -3.4982645587 0.3189703089 -0.9704112657
C -4.4739405128 -0.5205553142 -1.6108807614
C -4.7438432415 -1.7800307883 -0.8140773184
H 1.9258119711 -0.1002026886 -2.759646852
H 0.9546521584 1.0984311364 -1.9006294315
H 1.7989160782 1.551197481 -3.3833685156
H 2.9610456686 2.3963085209 -1.3175000644
H 3.9946017142 1.2816158408 -2.2624118242
H 4.0760986491 -1.6361735293 0.6420401815
H 5.0620935226 -1.0468329312 2.0071702089
H 2.5251916909 -2.7571407732 2.2105511279
H 4.1770654234 -3.2792256427 2.5615191798
H 3.3936973466 -2.0722847391 3.5938433937
H -0.1476968613 0.1940989716 1.7767674097
H -0.0353300529 -1.5043423225 2.3577462334
H -1.0876224559 3.1920670928 -0.0569972812
H -2.6993776794 2.7128954725 -0.6764720029
H -1.542239724 2.0611768758 2.0812014403
H -2.8534952481 3.1877588814 1.7307380086
H -3.0958468569 1.4543708447 1.4673598561
H -5.3590494211 0.1131679491 -1.6801074756
H -4.1116929595 -0.7692580921 -2.6135487944
H -5.5483206879 -2.3374620241 -1.2827516575
H -3.8492841053 -2.4020018999 -0.7924331829
H -5.0210526695 -1.5331212087 0.2073999688
*
