! pbe def2-sv(p) def2/J RI DEFGRID1 loosescf d4 GCP(DFT/SV(P)) printgap
%output
    printlevel normal
end
* xyz 0 1
C 3.1348497575 -1.3605025324 -2.457852659
C 2.2739348284 -0.1177079543 -2.5189958227
O 2.3407230954 0.6894967392 -1.3200050834
P 2.1447775455 0.2069776965 0.1614174693
S 1.6671011231 1.7154878468 1.3173084634
O 3.576057435 -0.4358293306 0.4513778107
C 3.8949940032 -1.329988411 1.5300865498
C 3.7200881857 -0.6961728955 2.8955321768
S 0.8312488293 -1.4735657291 0.198122786
C -0.2846221504 -0.9603962131 1.5402013991
S -2.0506700242 -1.0917530092 1.1468726448
P -2.3643657485 0.3477927765 -0.3850611818
S -0.8214454962 1.1613837187 -1.2985454132
O -3.4096382142 1.3713356485 0.226399651
C -3.0360938281 2.5956687625 0.8758997564
C -2.2761232454 2.3614287215 2.1669754909
O -3.3986521583 -0.3779471839 -1.3367535737
C -2.9824186937 -1.184657084 -2.4541249958
C -2.3262159665 -2.4812312756 -2.0215131064
H 4.1609477805 -1.0946100342 -2.2172319411
H 2.7575142815 -2.0480847469 -1.7022852732
H 3.1071753386 -1.8526638398 -3.4251622129
H 1.2228251883 -0.3677876291 -2.6874579631
H 2.6100438466 0.5699910984 -3.2966551567
H 3.2702326491 -2.2231160712 1.4334114652
H 4.939082777 -1.5895392938 1.346227778
H 2.6739763544 -0.4519393725 3.0718961133
H 4.0579461328 -1.3895064103 3.6589681321
H 4.2976835791 0.222621679 2.9620325965
H -0.024112915 0.0656901931 1.8167114676
H -0.1459641953 -1.6412439975 2.3764632489
H -2.436215113 3.1937369251 0.1819351996
H -3.9908938666 3.0911939179 1.0582418796
H -2.7939575084 1.631161003 2.7840171316
H -1.2678838883 2.0059958765 1.9530543804
H -2.1932008949 3.2973367695 2.7103863692
H -3.9092626435 -1.3676070906 -2.9997692641
H -2.3006165927 -0.5913787479 -3.0726066476
H -2.9657692883 -3.0108110948 -1.3201269665
H -2.1563999605 -3.1029684422 -2.8947172049
H -1.3687498678 -2.2821201973 -1.541006366
*
