! r2scan-3c def2/J RI DEFGRID2 scfconv6 printgap
%output
    printlevel normal
end
%cpcm
    smd true
    smdsolvent "water"
end
* xyz 0 1
C -1.2527363101 0.1649400338 2.8548e-06
C 0.1156597197 -0.4075604457 2.38348e-05
O 1.1461315871 0.2236268161 -5.7747e-06
H -1.2208731209 1.2505420743 0.0004028501
H -1.7856926285 -0.1978463888 -0.8763705557
H -1.7860718492 -0.1985579569 0.8758368456
H 0.1492131446 -1.5127541116 -9.55123e-05
*
