! pbe def2-sv(p) def2/J RI DEFGRID1 loosescf d4 GCP(DFT/SV(P)) printgap
%output
    printlevel normal
end
* xyz 0 1
C 5.2821715857 -0.6090669237 -2.5204073436
C 3.8887120438 -0.9806567478 -2.056733901
O 3.5392091756 -0.1069417266 -0.9621439152
P 2.0358548009 0.0337523575 -0.4770693424
S 0.7604364112 0.4831955121 -1.8960613866
O 2.1188066356 1.1552798091 0.6199479669
C 3.2454058271 1.4256383274 1.4929721374
C 3.4571088663 0.3385333381 2.5252105065
S 1.7002605584 -1.8420981909 0.4740741726
C 0.1138877358 -1.5084455696 1.2774609696
S -1.3225547645 -1.5707112934 0.1624440375
P -2.0129270935 0.4434286197 0.308049008
S -0.970203369 1.6231941215 1.466212189
O -3.5224058638 0.2442284835 0.7845350247
C -3.8291768662 -0.2168152582 2.1146434166
C -5.3138463718 -0.020477464 2.3452964619
O -2.2163779644 1.0076576937 -1.1395941423
C -2.8444397371 0.2721090149 -2.2193547525
C -4.3038560215 0.6530049742 -2.3489367879
H 5.9890692775 -0.7239335561 -1.7040020594
H 5.5687296346 -1.2612390006 -3.3386979071
H 5.2999616893 0.4223508205 -2.8614699634
H 3.8477641699 -2.0107971103 -1.6935792586
H 3.1489387327 -0.8512060253 -2.853496041
H 4.132099496 1.5601191262 0.8718419022
H 2.9658389626 2.3718896129 1.9594346523
H 3.7595038001 -0.5907131371 2.0479906365
H 4.2386516077 0.6557547425 3.2086973869
H 2.5421759157 0.1703787025 3.0882128691
H 0.138583917 -0.5201444165 1.7466493228
H -0.0098012442 -2.2992989914 2.0123774893
H -3.5503043485 -1.2724325403 2.1830215847
H -3.2315978501 0.3610344931 2.8275753403
H -5.5652823239 -0.3558318316 3.3459803787
H -5.5703998334 1.0302219096 2.2435455822
H -5.8829851536 -0.5945168937 1.6199246575
H -2.2668881832 0.5514483422 -3.1031221814
H -2.7249651557 -0.7994027997 -2.0350090444
H -4.395489698 1.7252455942 -2.4986058248
H -4.7291923067 0.1328071547 -3.2013213016
H -4.8456919487 0.3761971198 -1.4485166372
*
