! pbe def2-sv(p) def2/J RI DEFGRID1 loosescf d4 GCP(DFT/SV(P)) printgap
%output
    printlevel normal
end
* xyz 0 1
C 3.9646009067 -1.6689146832 -2.5346699485
C 4.0732033242 -0.2266977447 -2.0849703058
O 3.5208932778 -0.0274309032 -0.7712854619
P 1.9636227271 -0.1469742118 -0.4752847105
S 0.8353040693 0.5876151321 -1.9082053448
O 1.8681625878 0.5134788153 0.9596047505
C 2.2662038916 1.8817739381 1.2100440334
C 2.027390233 2.1622924006 2.6777697332
S 1.6304445185 -2.154634972 0.0375348808
C -0.1643676199 -2.1979801452 -0.2063255246
S -1.1035326279 -1.5356785425 1.2088430677
P -1.9841365783 0.2391055724 0.4716326149
S -1.1529343111 2.0030663407 0.717354686
O -3.4410460207 0.1998217201 1.1218440676
C -3.7261118201 0.8044150347 2.3913431351
C -3.064083537 0.050591878 3.5265778837
O -2.2948675021 -0.2183386944 -1.0093473273
C -2.8067999679 0.7116838146 -1.9907776965
C -2.5999566989 0.101239317 -3.3603065345
H 4.3832989546 -2.3317478851 -1.7818581627
H 2.9194694527 -1.931642695 -2.6913869759
H 4.5035546202 -1.7941328547 -3.4682402611
H 3.5507257976 0.4356731618 -2.7827964547
H 5.1124110954 0.0879893568 -1.9809189596
H 3.3206861024 1.9829644505 0.9431330354
H 1.6631992388 2.5410335531 0.5774590016
H 2.5598072062 1.4368543237 3.2858461484
H 2.3780923297 3.1624864387 2.9093078595
H 0.9641529048 2.09927969 2.8940210542
H -0.434675811 -3.2463546263 -0.2971981149
H -0.4239246122 -1.6374709059 -1.104227854
H -3.3819881034 1.8441746924 2.3646381705
H -4.8139576647 0.7741531576 2.4627684986
H -1.9800610501 0.1012565352 3.4163935796
H -3.3449268995 0.4989070674 4.4740104367
H -3.3638467866 -0.9939284478 3.5135434594
H -3.86469848 0.8771152507 -1.7738377852
H -2.2642555671 1.6581655718 -1.8900329733
H -3.0836073312 -0.8698017224 -3.4111370198
H -3.026997809 0.7597977456 -4.1092066597
H -1.5364416783 -0.0160517891 -3.554540951
*
