! pbe def2-sv(p) def2/J RI DEFGRID1 loosescf d4 GCP(DFT/SV(P)) printgap
%output
    printlevel normal
end
* xyz 0 1
C 4.3539799753 -0.2635132359 -1.6198912475
C 2.9928658215 0.3648756585 -1.8219881461
O 2.4297597069 0.9028751023 -0.6013095123
P 2.2412928454 0.1552113643 0.7741805912
S 1.0156412072 1.1371015968 1.9396745734
O 3.7256242547 0.0299875462 1.3233352495
C 4.0236700242 -0.2040690996 2.7107564074
C 3.5728345786 -1.5738853622 3.1752314354
S 1.6692729833 -1.85044484 0.3135727849
C -0.0887858436 -1.5329005603 0.1330491165
S -0.4198015698 -0.6728621888 -1.4595404
P -2.3014811455 0.1244392254 -1.0030002828
S -3.2098184527 1.0796826987 -2.4517369372
O -2.1203136097 0.9984214157 0.3213785791
C -1.8602596599 2.4116177472 0.286446316
C -2.2702646543 2.9937232524 1.6229409697
O -2.9750894713 -1.1816196724 -0.4107679578
C -4.3684129422 -1.1941911493 -0.0149941171
C -5.2315882516 -1.7484823769 -1.1300737729
H 5.0293365738 0.4440739496 -1.1460935329
H 4.2728725609 -1.1492099217 -0.9931298884
H 4.7544721541 -0.5508543548 -2.587222365
H 2.2794898806 -0.3566264597 -2.2321435998
H 3.0424077487 1.2371407853 -2.4755538714
H 5.1080913111 -0.0979719621 2.7632653715
H 3.5449927557 0.5806358669 3.305165866
H 3.9433924556 -1.7497534597 4.1800445925
H 2.4854976779 -1.6255865551 3.1873082706
H 3.9533506015 -2.3443557039 2.5097483398
H -0.4321149518 -0.8950425333 0.9500176483
H -0.5943119779 -2.4942674238 0.1261303602
H -0.7911533934 2.560026259 0.1089424431
H -2.4262562121 2.849644847 -0.5428745475
H -2.0937042244 4.0639768982 1.611562748
H -3.3227871028 2.8023976626 1.8108663489
H -1.6757166084 2.5413093805 2.4129109409
H -4.3956293067 -1.8332009271 0.8691566432
H -4.6746220083 -0.1804798834 0.2552949909
H -4.8849107194 -2.7380856253 -1.4139267458
H -6.2602353622 -1.8104249743 -0.7895474644
H -5.1840851937 -1.0975519419 -2.0006404749
*
