! pbe def2-sv(p) def2/J RI DEFGRID1 loosescf d4 GCP(DFT/SV(P)) printgap
%output
    printlevel normal
end
* xyz 0 1
C 2.235059418 -4.5839059181 -0.1160354373
C 1.9968001248 -3.5702700435 -1.2199573868
O 1.7835506612 -2.2756042309 -0.6219935586
C 2.240667 -1.2064785071 -1.2370691002
O 2.8315833572 -1.2147954481 -2.2941500941
C 1.8978158403 0.0595482308 -0.4735048433
C 0.722029987 0.7449756401 -1.1715913996
H 0.9886429364 0.9543927507 -2.2127558674
C 0.3235741649 2.0493239425 -0.5007809228
O -0.8259788118 2.2988621642 -0.1983575779
O 1.3450207463 2.8406600636 -0.3349948965
C 1.1451682768 4.0965397622 0.3517904171
C 1.4277859649 3.9313846435 1.8355309646
S -0.7512405957 -0.3190583213 -1.2708235087
P -1.5821775337 -0.0743825698 0.6810834978
S -0.4415374329 0.4324080127 2.1890823031
O -2.9236916728 0.7521491107 0.5949213969
C -3.9411330327 0.4880382526 -0.389004471
O -2.2006770647 -1.5470613952 0.8712464171
C -1.3527808669 -2.6734602763 1.1100409002
H 2.3706445348 -5.5655333667 -0.5576060803
H 3.1244992492 -4.322066689 0.449850827
H 1.3855056175 -4.6088858977 0.5601996131
H 1.1004521032 -3.8121420922 -1.7982967152
H 2.84976167 -3.4990289644 -1.9011234876
H 2.7522554553 0.7364435111 -0.4961460075
H 1.6407305167 -0.1892252412 0.5573134743
H 1.8527335414 4.7801822908 -0.1175100657
H 0.117536548 4.4281620634 0.182588684
H 0.7504727609 3.1972953144 2.2689284221
H 2.4484491974 3.5941319645 1.9898582764
H 1.2836955324 4.8827946505 2.3362603147
H -4.712048903 1.2310396837 -0.2022139247
H -4.3304986866 -0.5202896428 -0.2594300694
H -3.5282488852 0.6068628649 -1.3907566632
H -0.718364528 -2.8538462677 0.2421877555
H -2.0220114624 -3.5123068323 1.2816842425
H -0.7304807796 -2.4909489642 1.9877540591
*
