! pbe def2-sv(p) def2/J RI DEFGRID1 loosescf d4 GCP(DFT/SV(P)) printgap
%output
    printlevel normal
end
* xyz 0 1
C 4.0615837583 -3.23419183 -2.6169014554
C 2.8525805762 -3.2338198606 -1.7022083859
O 2.6963028486 -1.9045696836 -1.1671447346
C 1.8921769833 -1.7402566281 -0.1402194612
O 1.282474519 -2.6348610479 0.4036689327
C 1.7862887942 -0.2787280905 0.2553885729
C 0.93516908 0.4496523707 -0.788664941
H 1.4772868157 0.505693143 -1.7367755407
C 0.5586875571 1.853102527 -0.3423508273
O -0.5914847543 2.2427267072 -0.3246409206
O 1.6078012945 2.5528234848 -0.0150194292
C 1.4145131338 3.8837389811 0.5138382446
C 1.3156514402 3.8355667141 2.0293461115
S -0.6030727024 -0.4441804127 -1.1902016051
P -1.8343631195 0.0526389302 0.4748374279
S -1.0710531258 0.6104837693 2.1888810861
O -3.0121182889 0.9818772951 -0.0161739905
C -3.7616615056 0.7284561792 -1.219215482
O -2.641277627 -1.3352487747 0.607762179
C -2.0410031843 -2.4856100938 1.2070029677
H 3.9200178228 -2.5177993284 -3.4201951102
H 4.9534169225 -2.9649728555 -2.05889731
H 4.1902982093 -4.2250004778 -3.0394433184
H 2.9682344558 -3.9317979862 -0.8673782293
H 1.9357974349 -3.4882033253 -2.2427436996
H 2.7762971239 0.1753056085 0.2793879642
H 1.3203630987 -0.2172975335 1.2408677575
H 2.2945914947 4.4373753386 0.1868246171
H 0.5066139541 4.3061692577 0.0758446539
H 0.4680870969 3.2225156982 2.3323600941
H 2.2201443965 3.4096532661 2.4535250494
H 1.1773908549 4.8408074458 2.4128554737
H -4.2541040796 -0.2404168752 -1.1544658488
H -3.0965753344 0.7566777807 -2.0823428134
H -4.4899663543 1.5335987236 -1.2698284012
H -2.7882208857 -3.271853715 1.1445654797
H -1.7913369665 -2.2736041225 2.2475961024
H -1.1332703153 -2.7740020344 0.6743076637
*
