! pbe def2-sv(p) def2/J RI DEFGRID1 loosescf d4 GCP(DFT/SV(P)) printgap
%output
    printlevel normal
end
* xyz 0 1
C 4.827213806 -1.8912713607 -0.7772922283
C 4.3583588281 -1.3720999355 0.5651901272
O 3.6635460232 -0.1127578171 0.4680398892
P 2.4129182656 0.1725597505 -0.4702027548
S 2.7249906578 0.4765699138 -2.3763940748
O 1.8141337775 1.4789903366 0.1841897987
C 1.5272615142 1.6116140912 1.5952033747
C 2.6203715511 2.3984697804 2.2876591925
S 1.1009876509 -1.4305636337 0.0201078652
C -0.0328598976 -1.2166606838 -1.3710989505
S -0.7963180631 0.4352963366 -1.4672740198
P -2.2339804038 0.2616802483 0.0771210557
S -3.3566653135 1.8607374761 0.2180391975
O -1.3045560733 -0.1116397587 1.3018759149
C -1.7385962352 -0.8958180721 2.4387027616
C -2.8542252626 -0.2160262225 3.2026727754
O -2.9865018656 -1.1193188615 -0.1939123325
C -4.1610661738 -1.195399747 -1.0257872289
C -5.4143997526 -1.1737036154 -0.1730462155
H 3.9726404703 -2.1229991244 -1.4110467196
H 5.4332442762 -1.143443937 -1.2831916334
H 5.4146446349 -2.7917502789 -0.6298654116
H 5.2009365287 -1.1491305525 1.2220982123
H 3.690530641 -2.0920002488 1.0462992176
H 0.5678609892 2.1337120093 1.6367380437
H 1.4167915373 0.6146013311 2.0313796185
H 3.566112207 1.8677931274 2.2153940533
H 2.7292188541 3.372502139 1.8185456965
H 2.357432603 2.5302694799 3.3325224396
H -0.802038765 -1.9781746958 -1.2712724551
H 0.522128509 -1.3251253112 -2.3024595761
H -2.0483281986 -1.8788285283 2.0796934393
H -0.8342344729 -0.9912632533 3.0415716623
H -2.547429856 0.7774252768 3.5208090049
H -3.7333294575 -0.1146720148 2.5678900792
H -3.1101879134 -0.8102956078 4.0741366702
H -4.1594788305 -0.3614253047 -1.7331640082
H -4.0638966744 -2.1377890869 -1.5678524127
H -6.2816371764 -1.3138228565 -0.8100635236
H -5.3795054334 -1.9684546186 0.5667584901
H -5.5020954645 -0.2153947026 0.3346690999
*
