! pbe def2-sv(p) def2/J RI DEFGRID1 loosescf d4 GCP(DFT/SV(P)) printgap
%output
    printlevel normal
end
* xyz 0 1
C 2.201104255 -3.4008011723 0.5702073032
C 3.260451177 -2.3686145952 0.2200372339
O 2.840290369 -1.5724543947 -0.9051069533
C 2.1648715987 -0.4698327096 -0.6893647508
O 1.8787176871 -0.0241412288 0.4058790008
C 1.7821637802 0.2412175224 -1.9699258747
C 0.4329535729 0.927117561 -1.7671653722
H 0.2405077712 1.6338124515 -2.5777333198
C 0.3801670708 1.6713358598 -0.4497409556
O -0.5263581381 1.5044307303 0.3565156806
O 1.3054616282 2.5735117105 -0.334977501
C 1.3732338438 3.3164891349 0.9035038235
C 2.5501996885 4.2655673523 0.8097035988
S -0.9485409014 -0.2729314865 -1.8019879078
P -1.6570214497 -0.5037153791 0.1827704993
S -0.7064821802 -1.0267518073 1.8287652761
O -2.9444268723 0.4231743591 0.426010077
C -3.055169723 1.4498943327 1.4085014151
O -2.4398162998 -1.7970898103 -0.402259052
C -3.2789111702 -2.6101584132 0.4150963726
H 1.2954239899 -2.9075734855 0.9210139051
H 1.9600846642 -4.0026421031 -0.3017143724
H 2.5714273486 -4.0435484277 1.3617322634
H 4.1842181708 -2.8431491105 -0.1115253272
H 3.448492347 -1.706636705 1.069904864
H 1.7364371547 -0.466772985 -2.7950103621
H 2.5457565796 0.994346975 -2.1768578307
H 0.4270330383 3.8489248984 1.0372156871
H 1.4865055355 2.5937510942 1.7175683793
H 3.4716059923 3.7058838518 0.6827642304
H 2.4226219897 4.9349701126 -0.0353938522
H 2.6101880112 4.847641256 1.7231087557
H -4.0834305276 1.4165591942 1.7629112229
H -2.8343749832 2.4137445986 0.9536648222
H -2.3613592912 1.2615095346 2.2296410688
H -2.7995839671 -2.7913338837 1.3803516489
H -3.4065239493 -3.5442335811 -0.1266689045
H -4.239855549 -2.1189956989 0.5664862858
*
