! pbe def2-sv(p) def2/J RI DEFGRID1 loosescf d4 GCP(DFT/SV(P)) printgap
%output
    printlevel normal
end
* xyz 0 1
C 3.8684010913 -1.8269166747 -1.815294993
C 4.1405553652 -0.3356635615 -1.8270203712
O 3.594017757 0.3319059338 -0.6809315166
P 2.029086581 0.4978949831 -0.4148716168
S 1.0218962979 0.8668673066 -2.0541548067
O 2.0321489523 1.7043497128 0.5906286779
C 2.2798914975 1.6477017154 2.0147681282
C 3.5955388572 0.9818893278 2.3512057985
S 1.4641457863 -1.2433052562 0.6764102793
C 0.2430353435 -1.9679960503 -0.4607350623
S -1.4128346795 -2.1470952727 0.259007399
P -2.1067897379 -0.1664668615 0.1683681979
S -1.091257242 1.2781630061 1.0378202913
O -3.5978946334 -0.2973955692 0.7001320439
C -3.9399331006 -0.1378502256 2.0875790096
C -3.3822587429 -1.2578883911 2.9417430465
O -2.3075501829 -0.0435278978 -1.3969804072
C -2.5045215688 1.215368526 -2.0672371598
C -3.8205133348 1.8597756164 -1.6885416268
H 4.1632185038 -2.2578621257 -0.8620380576
H 2.8081043845 -2.0131034448 -1.9783147229
H 4.4325201837 -2.2982831413 -2.6136979195
H 3.7233346136 0.1248054544 -2.7286735126
H 5.2087468887 -0.1225770793 -1.7648713777
H 2.2661195077 2.698531782 2.3075727043
H 1.4371902849 1.1318208679 2.4833052278
H 4.4094174094 1.4727301351 1.8239166698
H 3.7627014132 1.0513245813 3.4215292668
H 3.5696715383 -0.0682891949 2.0641322218
H 0.5641691007 -2.9802790326 -0.6917964982
H 0.1854213842 -1.3458066015 -1.3587014737
H -3.5593714577 0.830817459 2.4280850577
H -5.0306213264 -0.1314828584 2.0890770332
H -2.2941360737 -1.2037181114 2.9599801559
H -3.7570007811 -1.1588030127 3.9554316788
H -3.6765921433 -2.2232677282 2.5378751454
H -1.6616794363 1.8727553516 -1.8287378642
H -2.4640429949 0.9535695155 -3.1255114997
H -3.8016920313 2.153676802 -0.6396353523
H -3.9748105758 2.7435142015 -2.2997622206
H -4.6377922918 1.1605307528 -1.8446313724
*
