! pbe def2-sv(p) def2/J RI DEFGRID1 loosescf d4 GCP(DFT/SV(P)) printgap
%output
    printlevel normal
end
* xyz 0 1
C 2.2393406739 -3.1921829966 -0.9156932797
C 2.9443367052 -2.1840265367 -1.7995807539
O 3.444314319 -1.0465499065 -1.0569832007
P 2.5548954786 0.0122885616 -0.2806829453
S 3.6056195395 1.6105179811 0.1186684783
O 1.9301767793 -0.7202261424 0.9967266076
C 2.5717461772 -0.688464416 2.2895450645
C 1.9666656445 0.3828815722 3.1738344031
S 0.8482770886 0.2437803852 -1.4952032589
C 0.1966948104 1.7026022663 -0.6426661791
S -0.6172254 1.3057107322 0.9230602117
P -2.1865776718 0.1715213659 0.0694507843
S -2.9064056825 0.8448066661 -1.6324063933
O -3.1978686779 -0.0341607245 1.2749331174
C -3.7227306087 1.0035882084 2.1226753685
C -4.3592203646 2.1363722483 1.3441564922
O -1.558195666 -1.2815970768 -0.0132793619
C -1.9102319329 -2.2132626441 -1.0536392721
C -3.3027028377 -2.7679610312 -0.8388945377
H 1.3497486684 -2.7481447676 -0.4732969736
H 1.9494461099 -4.047733315 -1.5179194522
H 2.901044676 -3.523036074 -0.1190868986
H 2.2764574132 -1.8145943052 -2.5823772018
H 3.8447320211 -2.604026117 -2.2509114294
H 2.4060991899 -1.6848500702 2.702690679
H 3.6439678091 -0.51791854 2.153295186
H 2.4300991597 0.3380521897 4.154097322
H 2.1411046029 1.366819095 2.7436052604
H 0.8955293059 0.2310148465 3.2703792585
H -0.5270773134 2.1558017422 -1.3204603754
H 1.015883218 2.3862099386 -0.4168555185
H -4.4566328019 0.4822793955 2.7400811826
H -2.9078202564 1.3760181725 2.7497876294
H -5.1198169207 1.752948248 0.668088881
H -4.8144591326 2.8376492197 2.0361034719
H -3.6060222585 2.6583003242 0.7553697858
H -1.8371807337 -1.7049619508 -2.020812827
H -1.1486093894 -2.9910644294 -0.987358235
H -3.5240400676 -3.5011582502 -1.607941405
H -3.376195059 -3.2319366586 0.1408545864
H -4.02995786 -1.9587195646 -0.8986511461
*
