! pbe def2-sv(p) def2/J RI DEFGRID1 loosescf d4 GCP(DFT/SV(P)) printgap
%output
    printlevel normal
end
* xyz 0 1
C 4.8421220672 -1.4759896445 -0.0561911731
C 4.0940830616 -1.5579703206 -1.3686945923
O 3.2745377573 -0.391696475 -1.6233609504
P 2.1356484109 0.1854670716 -0.6958857238
S 1.0002200058 1.3955775033 -1.7340819031
O 2.9579773347 0.8468715816 0.4870593246
C 2.4748434658 1.8877055623 1.3510832681
C 3.6601411635 2.7358668109 1.7646657692
S 1.1993312604 -1.5338214556 0.1437203261
C -0.2332054404 -1.6557141286 -0.9812630352
S -1.8072374736 -1.829018914 -0.1132119313
P -2.0944842234 0.2100872052 0.4346607898
S -0.7414852748 0.9777385521 1.6249881858
O -3.5776611234 0.2465700674 0.9982761619
C -3.8815721164 -0.011509254 2.3816635581
C -3.5528081238 -1.434026813 2.7838531269
O -2.2034378921 1.0158895892 -0.9156916924
C -3.3836729901 1.144926858 -1.7455069482
C -3.8504796821 -0.1766702304 -2.3182398679
H 5.4256884444 -0.5604571097 -0.0105363847
H 4.1402322772 -1.4879041432 0.7758932572
H 5.5051941993 -2.3314498472 0.0281912735
H 3.4488494067 -2.4400382847 -1.3902019288
H 4.7732358337 -1.5723155364 -2.2223064252
H 1.7248661072 2.4787925637 0.8143685339
H 1.9916387841 1.4209286849 2.2135301376
H 4.1187332328 3.1879835114 0.8892605207
H 3.3172735308 3.5171039475 2.4348677938
H 4.3957809116 2.120270304 2.2738590566
H -0.1232952114 -2.5558430466 -1.5796936966
H -0.2517992141 -0.755674873 -1.6032237339
H -3.321826322 0.7006206107 2.9958118547
H -4.9506133935 0.1935658859 2.4529907152
H -3.9074019251 -1.6118535498 3.7939749741
H -4.0230103628 -2.1405927765 2.1046061996
H -2.4745439634 -1.5868255073 2.757576674
H -4.1685518702 1.6104707292 -1.1466500145
H -3.0547956123 1.8305634827 -2.5285391254
H -3.0452668138 -0.6604710662 -2.8656808288
H -4.1868681142 -0.8380673144 -1.5229525721
H -4.6769460049 0.0105829134 -2.9968857535
*
