! pbe def2-sv(p) def2/J RI DEFGRID1 loosescf d4 GCP(DFT/SV(P)) printgap
%output
    printlevel normal
end
* xyz 0 1
C 5.7043944758 0.531098961 -1.0480640885
C 4.2654398936 0.1481450813 -1.3277717076
O 3.5550696217 0.1574570771 -0.0721684252
P 1.9699162289 0.1062487196 -0.0233261696
S 1.0449623234 1.5023949 -1.0426054836
O 1.6647977794 0.1975239655 1.5178774108
C 2.2501660127 -0.6977391201 2.5021414268
C 3.4458112792 -0.0481338783 3.1660451424
S 1.5718731955 -1.8985991439 -0.6173694138
C -0.1967391545 -1.7272039491 -0.9393250716
S -1.1144170415 -1.1471553216 0.5216275407
P -2.2805956166 0.4145715813 -0.3425149501
S -2.2522271925 0.5578855409 -2.2933884295
O -1.8809986465 1.7555458906 0.3791748732
C -1.4247468454 1.9177302059 1.741623783
C -2.3570051946 1.2879378532 2.7532274396
O -3.7377129044 0.167354012 0.25383188
C -4.7139706117 -0.6673450009 -0.3896598082
C -4.2939898581 -2.1226943709 -0.4375474312
H 5.7482937206 1.5242850659 -0.6100366152
H 6.1510638175 -0.1802358849 -0.3596345513
H 6.2605156699 0.5265147179 -1.9796655357
H 4.1938972367 -0.8564221536 -1.7533449621
H 3.7824178562 0.8594533905 -2.0057553857
H 1.4437676951 -0.8826443098 3.2138515989
H 2.5276876603 -1.6324451885 2.007836683
H 4.2259618601 0.1405739794 2.433610343
H 3.1556634095 0.8956815046 3.6191927936
H 3.8276342086 -0.7128478846 3.9345216805
H -0.54737237 -2.7216900029 -1.2044826207
H -0.365124976 -1.017738898 -1.7550316857
H -0.4162449087 1.498746501 1.8126835044
H -1.3723911717 3.0018505798 1.8551638555
H -2.0019588196 1.5194546877 3.7526753165
H -3.3638337938 1.6773296785 2.6267355766
H -2.378504822 0.2067231994 2.6242665174
H -5.6118288678 -0.5263737154 0.2136776834
H -4.8807284845 -0.2845419781 -1.4014422182
H -3.4461793111 -2.2388329353 -1.1113901786
H -4.0129069156 -2.4708595214 0.5530156335
H -5.1201954356 -2.7198525489 -0.8096797276
*
