! pbe def2-sv(p) def2/J RI DEFGRID1 loosescf d4 GCP(DFT/SV(P)) printgap
%output
    printlevel normal
end
* xyz 0 1
C 1.3617822041 -0.3706874376 -3.0375488012
C 2.4278233892 0.2820899819 -2.1806136311
O 2.8186393645 -0.5914566105 -1.1075136842
P 2.3305317658 -0.4434046148 0.4006102457
S 2.433861676 1.3849142323 1.1135915962
O 3.2528991532 -1.5210824979 1.1032508417
C 4.6555949933 -1.2741193047 1.3563424693
C 4.8642047316 -0.852425317 2.7972981204
S 0.5119166278 -1.482009809 0.5674445267
C -0.3316742511 -0.3930907188 1.7752099832
S -2.1044210018 -0.3358664182 1.4874797838
P -2.0542326855 0.5158785607 -0.4723304995
S -0.6504909166 1.8346905083 -0.8214107812
O -3.5657389668 0.9489597659 -0.6936971124
C -4.3522790513 1.7298449592 0.2260131879
C -3.6845632603 3.0338532449 0.6081348137
O -1.9038540589 -0.6808131849 -1.4863770861
C -2.7959307375 -1.8228634734 -1.5170367382
C -3.7985828708 -1.6787767739 -2.643419992
H 1.697951689 -1.3494663761 -3.3678302176
H 0.4370839361 -0.4841083099 -2.4747699022
H 1.1670462809 0.2589756 -3.8997447731
H 2.0752958608 1.232698017 -1.7658001104
H 3.3429967542 0.4527123042 -2.7510787142
H 5.1467427417 -2.2245478614 1.1413603124
H 5.0183920458 -0.5091648441 0.6647200637
H 5.9265518563 -0.7373308155 2.9870214636
H 4.3644074382 0.0955140724 2.9855237902
H 4.4565121286 -1.6041642102 3.4670516721
H 0.0937658882 0.611004863 1.6851621328
H -0.1958381694 -0.7919955139 2.7773552449
H -5.2834628764 1.904093757 -0.3159015045
H -4.544044521 1.119271887 1.1124259364
H -3.4357920292 3.6089298138 -0.2808759225
H -4.3540661766 3.6131155937 1.2357193397
H -2.7643970221 2.8391466413 1.1577785306
H -2.1391265332 -2.6813410834 -1.6695065487
H -3.2948667022 -1.9112452053 -0.5481148013
H -4.422725603 -0.8040934868 -2.4810207259
H -3.2804120994 -1.5667116897 -3.5916634815
H -4.4234409405 -2.5656149568 -2.6780344802
*
