! pbe def2-sv(p) def2/J RI DEFGRID1 loosescf d4 GCP(DFT/SV(P)) printgap
%output
    printlevel normal
end
* xyz 0 1
C 5.2476205503 -0.6842244389 -0.6438409992
C 4.245247508 -0.8677566901 0.4838305902
O 2.8941090945 -0.7597135263 -0.0106698665
C 2.2954753345 -1.8558087148 -0.4511753766
O 2.8002762515 -2.9549004805 -0.4468577009
C 0.8854582505 -1.5873624538 -0.930132047
C 0.6293117817 -0.1185488735 -1.2249788286
H 1.2112538576 0.2403189234 -2.0747062404
C 0.8651239447 0.777132179 -0.0285920107
O 0.3664486582 0.5583148658 1.0573214309
O 1.5937224594 1.8186881832 -0.3317930216
C 1.7867849075 2.8396563798 0.6697874559
C 0.7175548028 3.9114194414 0.5294845155
S -1.1191227603 0.190188149 -1.6824428149
P -2.1551615926 -0.0455166164 0.1373017092
S -1.8926409766 -1.6020050419 1.3149090124
O -2.1281056598 1.4130735227 0.7754784245
C -2.3657605671 1.6097233583 2.1779238844
O -3.6550828197 -0.0102461473 -0.4303426163
C -4.2654399515 -1.1570485783 -1.0297191894
H 6.251978128 -0.7004078944 -0.2338878935
H 5.1476809836 -1.4913784234 -1.3655786376
H 5.0785822558 0.2647013119 -1.1452093055
H 4.3297525351 -0.074912189 1.2276520858
H 4.3640987 -1.8461359166 0.9574955951
H 0.2220164007 -1.9322080354 -0.1275075082
H 0.6868858481 -2.2005180735 -1.8094141965
H 1.7502530995 2.3716478715 1.6571047152
H 2.7811900275 3.239331778 0.4719574412
H 0.767604594 4.3627246724 -0.4573759624
H -0.2694298315 3.4723709067 0.6623042531
H 0.8711154257 4.6760726061 1.2835823728
H -3.3754216613 1.2941587014 2.4374452389
H -2.2411378703 2.6761966363 2.3473667173
H -1.6370122914 1.0400314877 2.7560501617
H -5.3349835549 -0.9633874216 -1.0165001658
H -4.0325333416 -2.0511991293 -0.4481095807
H -3.9090651099 -1.2735994159 -2.0524928846
*
