! pbe def2-sv(p) def2/J RI DEFGRID1 loosescf d4 GCP(DFT/SV(P)) printgap
%output
    printlevel normal
end
* xyz 0 1
C 3.6203762788 -4.0854649835 -0.4765909734
C 2.1890527146 -3.6856471284 -0.7970728591
O 1.8915390544 -2.3709085489 -0.2879411916
C 2.2393339642 -1.3279330095 -1.0147103311
O 2.7696221913 -1.3867476843 -2.1005485637
C 1.8476913044 -0.026768706 -0.337587442
C 0.7473653146 0.6402522067 -1.1655244775
H 1.1149159454 0.8234421564 -2.1792790991
C 0.2943701594 1.9459945126 -0.5427141163
O -0.8573508407 2.1363227256 -0.2008986914
O 1.2672843026 2.8008218208 -0.4297917459
C 1.0101050145 4.0537280297 0.2460445561
C 1.2190796417 3.8959894756 1.7429051403
S -0.7144855202 -0.4320295907 -1.3709874467
P -1.7332136539 -0.1378119769 0.4773310459
S -0.7589319278 0.3061641476 2.1297056615
O -3.1116328139 0.5913251352 0.1984260051
C -3.4861394825 1.8833394511 0.6801745061
O -2.4087317785 -1.588939869 0.5862781027
C -1.6178088455 -2.7451873191 0.8672299371
H 3.7953287534 -4.0226363779 0.5938940517
H 3.7897208399 -5.1044698618 -0.8082571821
H 4.3164909926 -3.4266616586 -0.9903329763
H 1.4738641816 -4.340004874 -0.2982397579
H 2.0186597642 -3.6849084116 -1.8774491605
H 2.7115874145 0.6387067762 -0.3115198824
H 1.5027827707 -0.2336172772 0.6764919824
H 1.7291038516 4.7473233091 -0.1890348979
H -0.0123550071 4.368538114 0.02386287
H 1.0203443126 4.8421640074 2.2347622301
H 0.5432610879 3.1415462822 2.1424672328
H 2.2403234909 3.5910713609 1.9515005401
H -3.3208945102 2.6205645692 -0.1030996878
H -2.9009073313 2.1466985775 1.5625780304
H -4.5421352809 1.8134076868 0.9319541482
H -1.015837727 -2.5799399136 1.7633172465
H -0.965244156 -2.9709538881 0.0228392403
H -2.327122037 -3.5526583336 1.0287236386
*
