! pbe def2-sv(p) def2/J RI DEFGRID1 loosescf d4 GCP(DFT/SV(P)) printgap
%output
    printlevel normal
end
* xyz 0 1
C 1.4141070216 -0.6118595992 2.9802516243
C 2.1218305423 0.5887372025 2.3872996184
O 3.063639687 0.2341737372 1.3592742342
P 2.7226779235 -0.6144290982 0.0571900385
S 2.5459669709 -2.5533691066 0.2292769361
O 3.9481590208 -0.2842482078 -0.8748089779
C 4.359170524 1.0615492018 -1.2193895605
C 5.5061859489 1.5136331475 -0.3387490883
S 1.0541727001 0.4325800583 -0.8092153598
C -0.056521709 -0.9707316807 -1.0708779498
S -1.326469512 -1.1104995604 0.2072178358
P -2.5326552104 0.5041172311 -0.5027701376
S -2.6489631815 0.6969062228 -2.4450221183
O -1.9276375955 1.7957276974 0.1673117819
C -1.6653590442 1.953348891 1.5831514611
C -2.8712003399 2.5078634682 2.3132446479
O -3.9152132635 0.3121068196 0.2577723463
C -4.9821694136 -0.4964889287 -0.2696493008
C -4.6219247105 -1.9670728983 -0.3196671177
H 0.7756706134 -1.0879636022 2.2362490961
H 2.1391012193 -1.3458848668 3.3235342842
H 0.8029262483 -0.2927174366 3.8184913762
H 2.7352859374 1.0962366218 3.1338233531
H 1.4017564129 1.2923027577 1.9592936525
H 4.663893807 0.9950307076 -2.2654283744
H 3.4980342851 1.7301470784 -1.1310877203
H 5.832671238 2.4982802881 -0.6584846679
H 5.1911888456 1.5574748531 0.7001132043
H 6.3344048425 0.8155332806 -0.4231542378
H 0.5242614127 -1.8951936376 -1.0444907757
H -0.5437109014 -0.8250120262 -2.0354840274
H -1.366444185 0.9855946349 1.9963403834
H -0.8270470279 2.6519680205 1.6162666067
H -2.5994555791 2.701689705 3.3462441476
H -3.1949022878 3.4347164229 1.847631603
H -3.6914864389 1.7962390089 2.2857391001
H -5.8122496698 -0.3090993985 0.4129195465
H -5.2318968754 -0.1275243896 -1.2691603114
H -5.5011618046 -2.5417549076 -0.5926822675
H -3.847098016 -2.1372979194 -1.0657855662
H -4.257210636 -2.3023870954 0.6480877004
*
