! pbe def2-sv(p) def2/J RI DEFGRID1 loosescf d4 GCP(DFT/SV(P)) printgap
%output
    printlevel normal
end
* xyz 0 1
C 3.5553120184 -0.980176685 1.9789318241
C 2.7859578928 -1.9446129822 1.0910285328
O 2.5435370361 -1.3655499927 -0.2073988193
C 1.5342728077 -0.5544069267 -0.3609579654
O 0.7596810212 -0.2245579124 0.5273373707
C 1.3955742105 -0.0259483866 -1.766003857
C 0.2698919985 0.997361196 -1.7777315454
H 0.2604057684 1.5594535803 -2.7150692751
C 0.3876079628 1.9758084946 -0.6168265077
O -0.5507356185 2.4169396225 0.0048095397
O 1.643878687 2.322708221 -0.4171131941
C 1.9151822814 3.2532939961 0.6503584082
C 3.3895601654 3.6009702477 0.6059623532
S -1.393196441 0.2425809352 -1.750155205
P -1.7400237518 -0.7999709509 0.064278548
S -0.9401084031 -2.5638452495 0.433642481
O -1.8973890058 0.2193401115 1.2643514604
C -1.2063371037 0.1572349456 2.5086604145
O -3.3183996994 -0.9804368944 -0.1718553231
C -3.8377267974 -1.8965481285 -1.1386690318
H 2.9630402322 -0.0864252277 2.1638361288
H 3.7685019416 -1.4609950393 2.9276607201
H 4.4893056329 -0.6972657205 1.5012537586
H 1.8249061218 -2.2169633445 1.5365243813
H 3.3648494071 -2.8427054897 0.8780951084
H 1.1777614981 -0.8524524327 -2.4444698201
H 2.3394164571 0.4303718676 -2.0670571893
H 1.2798850949 4.1331844193 0.5103827394
H 1.6351789858 2.7767461626 1.5958424137
H 3.636471773 4.0512479553 -0.3504773663
H 3.6133912047 4.3035492732 1.4016077771
H 3.9896925714 2.7059161406 0.7399516631
H -0.7567819803 -0.8276804889 2.6490481605
H -1.9476400527 0.352343176 3.2807296353
H -0.431923809 0.9229749704 2.5155068445
H -3.7254240702 -1.4874791381 -2.1426446487
H -4.8891217197 -2.018695192 -0.8902469798
H -3.3166362477 -2.8536057291 -1.0646784812
*
