! pbe def2-sv(p) def2/J RI DEFGRID1 loosescf d4 GCP(DFT/SV(P)) printgap
%output
    printlevel normal
end
* xyz 0 1
C 4.536868441 1.523034801 0.1571803209
C 3.4078436127 1.249816144 -0.8156048331
O 2.7646339406 -0.0054489812 -0.5283534972
P 1.7719742813 -0.183021822 0.7147518098
S 0.964920743 1.4594511049 1.3988400373
O 2.5935265613 -0.8529151846 1.8938666995
C 3.4099216775 -2.0391657831 1.7361306317
C 2.729438972 -3.2368737775 2.3679055087
S 0.635305089 -1.8047740417 -0.0448521664
C 0.3096571739 -1.2168101714 -1.7340342174
S -0.1781936558 0.5238668016 -1.8298869588
P -2.1033734743 0.2952924613 -1.0130167589
S -3.2363124509 -1.0945037412 -1.7802470303
O -2.7661168217 1.7247118987 -1.1718988548
C -2.1914144252 2.930643774 -0.6011903607
C -3.2281633781 3.6035120343 0.2746254438
O -1.7244141771 0.1202024495 0.5302124496
C -2.703621395 -0.3105848625 1.4999132177
C -2.5525420402 -1.7894760405 1.7929017133
H 5.2648806313 0.7164234507 0.1303143545
H 5.0233203117 2.4561418737 -0.1085005004
H 4.1373201883 1.6076548516 1.1675438558
H 3.7676638861 1.1382489829 -1.8392088465
H 2.6569233917 2.0448780755 -0.7719885174
H 3.6013679115 -2.2043309922 0.6732230919
H 4.3444373774 -1.8017813147 2.2476095679
H 2.5037249993 -3.0284610495 3.4099848704
H 1.802391335 -3.4660038236 1.8465301834
H 3.3921175202 -4.0943813911 2.3087476599
H -0.4963180181 -1.840356433 -2.1239860006
H 1.2130725667 -1.3179254942 -2.3301458011
H -1.2958649429 2.675453488 -0.0267403537
H -1.914182756 3.5598681246 -1.4485932092
H -2.8251160997 4.5426502329 0.6397126215
H -4.1310455853 3.7942259372 -0.2986737437
H -3.4757898466 2.9700453287 1.1227719728
H -2.497321966 0.2952849635 2.3848466252
H -3.7057374421 -0.0866431579 1.1203832677
H -1.5420044473 -2.000628439 2.1328876839
H -3.260652864 -2.0738157485 2.5644413908
H -2.7485302652 -2.3715059622 0.8948928504
*
