! pbe def2-sv(p) def2/J RI DEFGRID1 loosescf d4 GCP(DFT/SV(P)) printgap
%output
    printlevel normal
end
* xyz 0 1
C 2.7129038287 -1.0205873679 -2.8783150587
C 3.2607030999 0.1345686163 -2.0625411798
O 2.2470442215 0.6749130905 -1.1790574468
P 2.0691723768 0.3210054175 0.3448637501
S 0.7008126802 1.4932746341 1.1129747108
O 3.5477418629 0.5164492208 0.8927198531
C 4.0611199144 -0.0259716046 2.1253422309
C 3.1856384055 0.2917831714 3.3186543877
S 1.8386784539 -1.7903504857 0.5346951936
C 0.1964775243 -2.0352112649 -0.1864163033
S -1.1552098305 -1.3855545677 0.8465638865
P -1.9446211033 0.0367022028 -0.4987926762
S -0.8913269837 0.5030599331 -2.0776759477
O -2.3980873443 1.3146539803 0.3167157693
C -3.355469421 1.3016981445 1.4021085658
C -2.6840694985 1.0571115811 2.73861039
O -3.2905919076 -0.7666086941 -0.8490699409
C -4.0197060863 -0.5532374485 -2.0708737705
C -4.7542054463 0.7727747252 -2.0697615337
H 2.5669103686 -1.9013054718 -2.2577822796
H 1.7619404097 -0.7342347202 -3.3232706929
H 3.4171916485 -1.2595596086 -3.6686856962
H 3.5214668744 0.9781201593 -2.7036602702
H 4.1281435635 -0.162554647 -1.4703282968
H 4.1677959295 -1.1069489125 2.0006124472
H 5.0449699202 0.4378004861 2.2168208741
H 2.2123057871 -0.1847600576 3.2081828598
H 3.6604679556 -0.0768352509 4.2220925568
H 3.0324051118 1.3652922607 3.4017209091
H 0.0731699729 -3.1121550671 -0.2645128885
H 0.1472631729 -1.5514271827 -1.165592728
H -3.7977032925 2.2987613063 1.3613037015
H -4.1155140066 0.5437070095 1.1944955142
H -1.8158665477 1.7051332139 2.8366623347
H -3.3889989704 1.2729892958 3.5350960032
H -2.3537741441 0.024374251 2.8247095757
H -3.3138191213 -0.598477787 -2.90633495
H -4.7074406472 -1.3986174223 -2.1180899961
H -4.0376291072 1.5911089606 -1.9972294866
H -5.3108895058 0.875039709 -2.9960147966
H -5.4413859101 0.8295599437 -1.2294182661
*
