  16
        -30.75929129
 C         -2.5920393418       -0.6931612970       -0.0000729849
 C         -2.5920528272        0.6931257087       -0.0000098280
 C         -1.4006354594        1.4149321199        0.0000802159
 C         -0.2204314980        0.7006229371        0.0000380295
 C         -0.2204160385       -0.7006242867       -0.0000166157
 C         -1.4006077443       -1.4149478006       -0.0000890677
 C          1.1861042614       -1.1562399730        0.0000982120
 O          1.6372250043       -2.2800408421        0.0000260155
 N          1.9464462991        0.0000152525       -0.0000380035
 C          1.1860825106        1.1562547448       -0.0000260036
 O          1.6371814227        2.2800584697       -0.0000352645
 H         -3.5305514169       -1.2244001841        0.0002942311
 H         -3.5305715232        1.2243469024        0.0001465971
 H         -1.3904874791        2.4931093173        0.0002246240
 H         -1.3904395908       -2.4931230529        0.0001131317
 H          2.9578148214        0.0000262413       -0.0001269847
