  9
        -24.08068209
 C          0.9816849783        0.8041823528        0.0874601052
 C         -0.3437135404        0.0447744917        0.0006778101
 F         -1.3995144105        0.8645631252        0.1534434567
 F         -0.4565812646       -0.8969532678        0.9570517333
 F         -0.5182086834       -0.5882071781       -1.1689062528
 O          2.0768579306       -0.0426326493       -0.0609326217
 H          1.0071680768        1.5147939792       -0.7424386326
 H          0.9824504506        1.3474661438        1.0395490251
 H          2.1941531675       -0.6043311057        0.7208079572
  9
        -24.08011312
 C          0.9638707691        0.8244973866        0.0989910224
 C         -0.3352443994        0.0388341325        0.0140657208
 F         -1.4065925625        0.8439198442        0.1570637961
 F         -0.4440257570       -0.8994406513        0.9657116853
 F         -0.4938712173       -0.5883659230       -1.1602799607
 O          2.0111543666       -0.0891853415       -0.0638673886
 H          0.9356560698        1.5778644776       -0.6981973800
 H          0.9796779912        1.3118412755        1.0818716843
 H          2.8607592274        0.3748563832       -0.0101694665
