  12
        -32.07811366
 C          1.1976510372       -1.2092156007       -0.0001529854
 C          1.8764665385       -0.0000056519       -0.0001726643
 C          1.1976604675        1.2092099841        0.0001328569
 C         -0.1880078479        1.2006401195        0.0003491468
 C         -0.8958639303        0.0000046294        0.0001308587
 C         -0.1880167984       -1.2006356243       -0.0001192167
 Cl        -1.0466767402       -2.6924606477        0.0000031788
 Cl        -2.6197107534        0.0000020689        0.0000148296
 Cl        -1.0466563698        2.6924706056       -0.0001008271
 Cl         3.5983026957       -0.0000108265        0.0000343256
 H          1.7312303065       -2.1448826779        0.0000779920
 H          1.7312439742        2.1448660030       -0.0003741680
