! pbe def2-sv(p) def2/J RI DEFGRID1 loosescf d4 GCP(DFT/SV(P)) printgap
%output
    printlevel normal
end
* xyz 0 1
C 0.817773008 -2.7493114523 1.5584648891
C 1.8798235401 -1.7168053197 1.8781284657
O 1.6164202793 -0.4745905086 1.1904189344
P 2.339120354 -0.0754671045 -0.1813491238
S 2.9633121901 -1.5424361478 -1.3045233304
O 3.5537666005 0.8581117562 0.2350115574
C 3.3779656449 2.0366012118 1.0598307752
C 4.7487550062 2.4788021654 1.5282020878
S 0.930948234 1.2867152399 -0.9746751697
C 0.0723393117 0.1191592616 -2.0640713511
S -0.7964377425 -1.1957201171 -1.1728990522
P -2.1104130368 0.0615616963 -0.0964032993
S -2.7960819456 1.6486261019 -1.0283280057
O -1.2430670751 0.3191340525 1.203309604
C -1.4138333731 1.4906557913 2.0232442686
C -2.7318637833 1.4645189391 2.7684661977
O -3.2197299681 -0.9263841057 0.4674294206
C -4.4286474907 -1.2248413767 -0.251727099
C -4.1655461571 -2.0543195907 -1.4920760523
H -0.1712280615 -2.3361720523 1.7424703005
H 0.8828864836 -3.0452285754 0.5135226438
H 0.968176417 -3.6221957553 2.1855066991
H 2.8725965749 -2.0805968179 1.5964378395
H 1.8701216283 -1.4521608993 2.9370620949
H 2.8942597259 2.8043979941 0.4500713609
H 2.7262726536 1.7822968939 1.8998671216
H 5.3820527804 2.6883018896 0.6711198573
H 4.6471732708 3.376521728 2.1293546901
H 5.2132031828 1.6965666006 2.1219020453
H 0.7954728121 -0.3738995671 -2.7128338465
H -0.6408742319 0.7116616834 -2.6363835691
H -0.56085481 1.4613832371 2.7027274643
H -1.3459455191 2.376060884 1.3824377118
H -2.823106445 0.5451232162 3.3407638093
H -2.784867163 2.3168718296 3.4385038284
H -3.5564228482 1.5205634316 2.0585647084
H -5.0379213867 -1.7662394165 0.4732407339
H -4.9147909292 -0.2804833302 -0.5172142964
H -3.5824129292 -2.9365850476 -1.2402436205
H -5.1115752345 -2.3586942477 -1.9282870503
H -3.612144928 -1.4673475856 -2.2238435698
*
