! pbe def2-sv(p) def2/J RI DEFGRID1 loosescf d4 GCP(DFT/SV(P)) printgap
%output
    printlevel normal
end
* xyz 0 1
C 4.8760947672 0.5345876462 -2.0218443897
C 4.1237377428 -0.7808546663 -2.000790331
O 3.3848136444 -0.9508061018 -0.7808186464
P 2.0578741904 -0.1125469234 -0.4525393349
S 1.0220955523 0.2865252229 -2.065037597
O 2.5127330174 1.2017209136 0.3010854633
C 2.8589268118 1.3136785385 1.6991344279
C 4.0138389789 0.4143237515 2.0855132594
S 1.2447494546 -1.4374766121 0.9725051493
C -0.1081412119 -2.1295468227 -0.0287061571
S -1.7575008285 -1.8056408554 0.6496072054
P -1.9557791293 0.2853066118 0.288033462
S -0.6172418297 1.482477353 1.0662954488
O -3.429291039 0.5334095071 0.8225830353
C -3.7239070016 0.5377917283 2.2356348447
C -5.0689642958 1.2075927661 2.4286979159
O -2.0934444138 0.4714505071 -1.2647706842
C -3.0443251408 -0.2425049594 -2.0947804568
C -4.3047354486 0.5736580504 -2.2902725823
H 5.4345776571 0.6174522028 -2.9488940463
H 4.1685068063 1.3616189829 -1.9578499912
H 5.562130082 0.5932873208 -1.1810338698
H 4.7996723159 -1.6366943301 -2.0229722363
H 3.4244160246 -0.8352808125 -2.8416769758
H 3.1095208082 2.3699869719 1.8087015713
H 1.9643434065 1.0934745507 2.2883615378
H 4.245272642 0.5701568174 3.1344540648
H 3.7461545966 -0.6303796302 1.9332941507
H 4.8902523295 0.6458463396 1.4857933463
H -0.0045147336 -3.2112956436 -0.0306572306
H -0.0401717053 -1.7169466036 -1.0391226191
H -3.7384726297 -0.4989342683 2.5812510495
H -2.9261282799 1.0791779099 2.754384083
H -5.8379494113 0.6616272719 1.8901680162
H -5.3106550554 1.2189780073 3.4863099071
H -5.0342664907 2.2282647371 2.0581021115
H -2.5123715249 -0.3933311993 -3.0364828144
H -3.2658776052 -1.2076492572 -1.6303909764
H -4.057107609 1.5449906537 -2.7097534072
H -4.9648922977 0.0459642917 -2.9714869538
H -4.8092742079 0.7202176557 -1.3390988376
*
