! r2scan-3c def2/J RI DEFGRID2 scfconv6 printgap
%output
    printlevel normal
end
%cpcm
    smd true
    smdsolvent "water"
end
* xyz 0 1
C 3.1180034194 -2.4473322466 -2.4233755081
C 3.3426734482 -2.3174336605 -0.9304869968
O 3.569614551 -0.934362435 -0.5584105077
P 2.4407437022 0.0141506511 0.0180948076
S 3.1633696661 1.7390494717 0.5798362787
O 1.6819377827 -0.8238395929 1.157377309
C 1.9866192964 -0.6517420357 2.5533558856
C 3.3137983717 -1.2900256554 2.9088320066
S 0.9283920032 0.0488720395 -1.4559565381
C 0.0296987231 1.4746490245 -0.7907942113
S -0.8087673443 1.1351461607 0.7776071209
P -2.5691273222 0.1947900452 0.0080003742
S -2.9557773846 0.5483220506 -1.8868679717
O -3.7217655746 0.608083178 1.0072392847
C -4.5545423506 1.7558590693 0.7717000212
C -3.804284731 3.0557989091 0.9855463795
O -2.4947690829 -1.308254028 0.4987308404
C -1.4321304916 -2.2339863637 0.2146301991
C -1.4565308636 -2.7150438223 -1.2232516931
H 3.0471898297 -3.499456676 -2.6808137099
H 2.1991690863 -1.9452837172 -2.7191925751
H 3.948242516 -2.0015866294 -2.9640464827
H 4.2562572251 -2.8298191214 -0.6239009313
H 2.4913404075 -2.7033581631 -0.3647800577
H 1.9983458553 0.4195851058 2.7769345032
H 1.1516779047 -1.1255085152 3.0715403815
H 3.4978875093 -1.1696605789 3.9716961582
H 3.3059054954 -2.3484962833 2.6619859641
H 4.1147949757 -0.8014521606 2.3541245962
H -0.7092613802 1.7478589636 -1.5456003778
H 0.7351796024 2.2835884107 -0.6034489172
H -4.9472767062 1.7010339683 -0.2490755164
H -5.3693436845 1.6400106435 1.487633555
H -3.0427845943 3.1788833212 0.2165657708
H -4.5000519908 3.8865751707 0.9259381004
H -3.3224919354 3.0572701353 1.9600515368
H -0.4729191303 -1.7647499174 0.4552713605
H -1.6178176242 -3.0557893109 0.9091489762
H -0.7107117395 -3.4925532871 -1.3541243997
H -2.4381899945 -3.1134234463 -1.4661184094
H -1.2344964239 -1.8961902508 -1.9051512431
*
