! pbe def2-sv(p) def2/J RI DEFGRID1 loosescf d4 GCP(DFT/SV(P)) printgap
%output
    printlevel normal
end
* xyz 0 1
C 4.9925906615 -2.8401947154 -1.5058682044
C 3.8240399131 -3.2551928636 -0.626648964
O 2.5777321561 -2.7639019109 -1.1625586557
C 2.1901401469 -1.5491884237 -0.8436245296
O 2.7957964886 -0.8009489122 -0.1029093178
C 0.8630791907 -1.2005287262 -1.4802898572
C 0.5807598471 0.2899986642 -1.3277588076
H 1.1233769717 0.893163315 -2.056171894
C 0.9004755655 0.7800183789 0.0701370854
O 0.371180781 0.2846042879 1.0493578815
O 1.6927294201 1.8151027888 0.0674770642
C 2.0456565706 2.4287852404 1.3249524478
C 1.1301498867 3.60597857 1.6179463623
S -1.1889727632 0.6474429383 -1.5896097525
P -2.1150378558 0.2265973583 0.2771582274
S -2.1440283885 1.5238009466 1.7565934151
O -3.6077457256 0.0203030622 -0.277852242
C -4.4464941488 1.1204857975 -0.6377170055
O -1.7960948024 -1.3061832278 0.5651712872
C -1.6558934157 -1.8096290801 1.9006660121
H 5.9050865288 -3.2822856367 -1.1198932825
H 4.8328176931 -3.1798620256 -2.5253133393
H 5.0970289027 -1.757562618 -1.5035137684
H 3.9444777812 -2.8676373166 0.3888780018
H 3.7023632272 -4.3381457072 -0.6100242537
H 0.0965004407 -1.7834779828 -0.9612177815
H 0.8558501238 -1.4968877113 -2.5283187876
H 1.9813564463 1.6721299839 2.1110690258
H 3.0791346838 2.748772794 1.1896971268
H 1.4628008813 4.0992418764 2.5250093782
H 1.1541885765 4.3125910405 0.7932911391
H 0.1064217855 3.264608314 1.7617879213
H -4.3769520734 1.9064619463 0.1172083331
H -5.4564082389 0.7201916336 -0.6771622943
H -4.1489808111 1.5107333726 -1.6107015673
H -0.8002465052 -1.3345207059 2.3816413704
H -1.4931640704 -2.8784631962 1.7881735537
H -2.5586389697 -1.6157277645 2.4782479773
*
