! r2scan-3c def2/J RI DEFGRID2 scfconv6 printgap
%output
    printlevel normal
end
* xyz 0 1
C 4.1134762913 -1.1185509994 -2.4381339582
C 4.3521062695 -1.4321674632 -0.9751733022
O 3.123515234 -1.5320006259 -0.2336796166
P 2.1960279973 -0.2751090523 0.0573900343
S 3.1487067101 1.393834844 0.4575488742
O 1.2527924894 -0.8447085803 1.1942552046
C 1.4833928515 -0.5841127033 2.5922758874
C 2.6918601414 -1.337920683 3.1062017396
S 0.8388052444 -0.2449995069 -1.561371739
C 0.2194329297 1.4372794602 -1.2799942739
S -0.6231502294 1.6434861816 0.3137130782
P -2.1950225719 0.2846316072 -0.0686383506
S -2.9046514729 0.2291560711 -1.8979424186
O -3.2651238485 0.595689455 1.0639143918
C -4.3303720019 1.5453832721 0.8823221231
C -3.8208162617 2.9708546666 0.8203672869
O -1.5436513479 -1.0494001024 0.481653602
C -1.9363561243 -2.3529409175 0.0105528959
C -3.3178477812 -2.7292128337 0.5032315104
H 5.0553562006 -1.1702302703 -2.9748436512
H 3.4119587283 -1.8290201669 -2.8683392934
H 3.7022277878 -0.1152894237 -2.5423693645
H 4.9719063165 -0.6570794208 -0.5129969127
H 4.8175126292 -2.4098005182 -0.8426918685
H 1.6101832254 0.4952389817 2.7281520712
H 0.5602937859 -0.9086394213 3.0748935527
H 3.5918644176 -0.9663862098 2.6172693522
H 2.7833098626 -1.1860175974 4.1770824061
H 2.5906212628 -2.3993804221 2.8959848461
H -0.475973983 1.6463094754 -2.092163721
H 1.0527635711 2.1389936657 -1.2775468146
H -4.8678186048 1.2894675859 -0.0364770928
H -4.9744412592 1.3844543656 1.7478693645
H -3.2314274722 3.1178838104 -0.0837291168
H -4.6643563984 3.6535689784 0.8055736679
H -3.1952435519 3.1868829024 1.6828915235
H -1.8993705126 -2.3525145339 -1.084065973
H -1.164701086 -3.0167299608 0.4033800778
H -4.0585961921 -2.059972799 0.066777663
H -3.5425575684 -3.7481481661 0.2040968988
H -3.3660518985 -2.6482369185 1.5859479556
*
