! pbe def2-sv(p) def2/J RI DEFGRID1 loosescf d4 GCP(DFT/SV(P)) printgap
%output
    printlevel normal
end
* xyz 0 1
C 1.7216407509 1.9070597612 -1.1758340277
C 3.0587187355 1.2173565989 -1.0096499117
O 2.9128288676 -0.1845855402 -0.7342880586
P 2.3856822733 -0.7480572268 0.6587140399
S 2.8233939521 0.3712299579 2.2125947131
O 2.9270405875 -2.2354844052 0.6173188063
C 4.2657610933 -2.6053220884 0.221306244
C 5.3216918398 -1.9965398987 1.120906436
S 0.3424300851 -1.2732939492 0.4507767028
C -0.4141386885 -0.2225405929 1.7190879456
S -1.1782846588 1.2988720485 1.0800337469
P -2.3408885684 0.4894934744 -0.4989665174
S -1.5120729653 0.1752491819 -2.2521635082
O -3.6000338008 1.4585557579 -0.5640312816
C -3.6143724222 2.6349093527 -1.3890808055
C -2.6455635237 3.6842765116 -0.883511531
O -2.9285107476 -0.7774802535 0.246714509
C -3.4173171682 -1.924998322 -0.47772147
C -4.7071554418 -1.6152312533 -1.2077232582
H 1.1069452738 1.3779767422 -1.9019134298
H 1.1963267771 1.935817531 -0.2212030317
H 1.8788159451 2.9252881746 -1.516570808
H 3.6252685487 1.6753552868 -0.1921573336
H 3.6414698184 1.2439871754 -1.9314075467
H 4.2580024193 -3.6941852228 0.2937205592
H 4.4136994966 -2.3032995102 -0.8179438533
H 6.2994328546 -2.3712442388 0.8348452218
H 5.3158557495 -0.9111640045 1.0281408739
H 5.1269475227 -2.2535681845 2.1595347133
H 0.357483881 0.1030760428 2.422004992
H -1.1770861566 -0.8156236118 2.2152389578
H -3.3634135698 2.3420143575 -2.4140606612
H -4.6481174318 2.9793452086 -1.3417624649
H -1.6247565017 3.30935741 -0.9609414276
H -2.7386313336 4.5839515407 -1.4830811991
H -2.8499935876 3.9183124038 0.1580242338
H -2.6402601167 -2.2495714617 -1.1774820477
H -3.5580383205 -2.6827162122 0.2941117648
H -4.5202685921 -0.8820423007 -1.9913734429
H -5.0934706374 -2.523771223 -1.6588479994
H -5.4417100071 -1.2109225635 -0.5163165653
*
