! pbe def2-sv(p) def2/J RI DEFGRID1 loosescf d4 GCP(DFT/SV(P)) printgap
%output
    printlevel normal
end
* xyz 0 1
C 4.1402349263 -0.9476805234 -2.6279205445
C 4.507988221 -1.4376039192 -1.2422502744
O 3.3489782729 -1.6531677532 -0.418095036
P 2.4240854046 -0.4624486015 0.0795743994
S 3.369350487 1.1808672655 0.5951975386
O 1.5743335431 -1.1624263777 1.2181311637
C 1.9665396502 -1.1229712 2.604751701
C 3.2117204428 -1.9465427792 2.8575415068
S 0.9325363405 -0.2854343686 -1.4078058012
C 0.2827837471 1.3066670586 -0.8372398728
S -0.6694943211 1.1862556104 0.7060675328
P -2.5249458444 0.6120623145 -0.1206775647
S -2.7065342383 0.6320597488 -2.0769390288
O -3.4239527344 1.6378678002 0.6776949001
C -4.8534886765 1.6947133223 0.4590948335
C -5.34271722 3.0465874049 0.9354881147
O -2.9729912522 -0.7664795091 0.5451257844
C -2.7103497837 -2.0564704353 -0.0328495191
C -1.480012018 -2.69114841 0.5835950395
H 3.7150555548 0.0535555309 -2.568684968
H 5.0312941387 -0.9148231971 -3.246662149
H 3.4080069918 -1.6106895077 -3.081936923
H 5.1591733929 -0.7145276391 -0.740609134
H 4.9913621913 -2.4148528268 -1.2748417754
H 2.1245089102 -0.0778823364 2.8898389438
H 1.1000278252 -1.5213052654 3.1337992583
H 3.4144522841 -1.976285386 3.9234974051
H 3.0743908813 -2.9580100828 2.4845583955
H 4.0625058034 -1.4956068241 2.348101634
H -0.3572661267 1.6844943369 -1.6337331861
H 1.1146027371 1.9818644979 -0.6364345377
H -5.048809118 1.5503305196 -0.6091340547
H -5.3134874548 0.8790284004 1.021709129
H -4.8696095555 3.8382930515 0.3614706212
H -6.4186365524 3.1026670485 0.8058784603
H -5.0968400373 3.1797461729 1.9849250231
H -3.6054329567 -2.6430789112 0.1831712411
H -2.6009308051 -1.9432225554 -1.1170158397
H -1.3562384577 -3.6917776312 0.1823208641
H -0.5897665859 -2.1093920191 0.3546897464
H -1.5921973972 -2.746842371 1.6630620963
*
