! pbe def2-sv(p) def2/J RI DEFGRID1 loosescf d4 GCP(DFT/SV(P)) printgap
%output
    printlevel normal
end
* xyz 0 1
C 3.0978929202 1.5087908221 -1.6766810041
C 1.8521810934 1.8145066463 -0.8756194374
O 1.9167073643 1.3304757255 0.4873463291
P 2.2129307452 -0.1412525095 0.9717158396
S 1.7849801316 -0.3662942715 2.866345497
O 3.750091023 -0.330563704 0.6159824774
C 4.5708307145 -1.3277140258 1.248155595
C 4.1613699713 -2.7363902832 0.8690681754
S 1.1921395004 -1.4309834864 -0.39020613
C -0.3335655647 -1.5763483519 0.579238752
S -1.1499514607 0.0114421262 0.894839588
P -2.1918099429 0.1569087446 -0.9708717359
S -1.1341541444 0.1197394697 -2.6126037764
O -3.0893024318 1.4540496648 -0.7792825365
C -2.5988952933 2.7759721481 -1.066714177
C -1.8262666446 3.35365987 0.102595188
O -3.2304023042 -1.028249654 -0.9219222401
C -4.2342590645 -1.1866260248 0.1128422712
C -5.5452219932 -0.5530705636 -0.3044945776
H 3.9804803939 1.8757472657 -1.159442707
H 3.1942141521 0.4354305719 -1.8271360899
H 3.0164223758 1.9912665579 -2.6458979917
H 0.9722317719 1.3790566815 -1.3604288202
H 1.7086249254 2.8888593294 -0.7493445223
H 5.5777242189 -1.0935998871 0.8998658365
H 4.5092457607 -1.1889387391 2.3321439565
H 4.8877944421 -3.4391705543 1.264261354
H 3.1841430527 -2.9656394858 1.291176135
H 4.1101177096 -2.8393107067 -0.2120202946
H -0.0954975902 -1.9878559887 1.559544153
H -0.9960992777 -2.2329585267 0.0189404175
H -1.9782496812 2.7293171064 -1.9678087231
H -3.4993955727 3.3573528193 -1.2709408754
H -0.9215052166 2.7776690104 0.2891360367
H -1.5509577031 4.3787243132 -0.1236706805
H -2.4364050926 3.3362041685 1.001773828
H -4.3359175983 -2.2675249021 0.2270263989
H -3.8594719016 -0.7476743099 1.0414998842
H -5.4312191394 0.5228168353 -0.4031006063
H -5.8685116603 -0.9611024033 -1.2582775883
H -6.2964407858 -0.7662006924 0.4497063421
*
