  29
        -34.62022967
 C         -2.1605927477        2.1577350630       -0.3050775477
 C         -1.8117234794        0.7817426950        0.1844904935
 C         -1.9060214948       -0.2751832546       -0.6137271435
 C         -1.5414054221       -1.6940160352       -0.3070033574
 C         -0.1397992999       -2.0235713855       -0.8645786351
 C          0.9162711593       -1.2511385671       -0.1264259542
 C          1.3255693577       -0.0662174041       -0.5650986753
 C          2.3349784044        0.8113780099        0.1166010062
 O          2.3620141867        2.1295875424       -0.3914166403
 C          1.4439962292       -1.8784404261        1.1293235211
 C         -1.3618376043        0.7526280556        1.6137364852
 H         -1.2818965080        2.8003865150       -0.2517398406
 H         -2.5144255955        2.1357758931       -1.3324388736
 H         -2.9329718220        2.6006256150        0.3222789151
 H         -2.2317680417       -0.1162244425       -1.6352609259
 H         -1.5573913562       -1.8853125198        0.7655179877
 H         -2.2673890552       -2.3594115393       -0.7794668536
 H          0.0424053951       -3.0945201974       -0.7609507057
 H         -0.1203968941       -1.7702642228       -1.9258141283
 H          0.9104246966        0.3395831405       -1.4771451976
 H          3.3385772611        0.3610260889        0.0479667221
 H          2.0974380766        0.9204804477        1.1799461411
 H          2.5647465867        2.0956681897       -1.3362777454
 H          1.6040570370       -1.1333807781        1.9053880036
 H          2.4013208911       -2.3601603405        0.9312976653
 H          0.7558015838       -2.6333920184        1.5005329561
 H         -0.4866802360        1.3910637577        1.7296814904
 H         -2.1468597926        1.1471237127        2.2583292565
 H         -1.1039780330       -0.2463775718        1.9464222610
