! pbe def2-sv(p) def2/J RI DEFGRID1 loosescf d4 GCP(DFT/SV(P)) printgap
%output
    printlevel normal
end
* xyz 0 1
C 5.8418259653 -0.481396882 -0.519593015
C 4.397577787 -0.7956162273 -0.8522995205
O 3.5691999081 0.1937871962 -0.2083795936
P 2.0469566081 0.3988737179 -0.6323697724
S 1.765342299 0.6522628089 -2.5490794042
O 1.6569527904 1.6270721552 0.2678451451
C 1.9321172229 1.6579732964 1.6937147973
C 1.0207690003 2.6920820203 2.3191028103
S 1.1563486448 -1.3427338999 0.2084847468
C -0.1030785813 -1.737471536 -1.0490862036
S -1.7423541002 -1.9464790146 -0.3331873281
P -2.0199518977 0.0652560956 0.3078142979
S -1.3463900653 1.4530620348 -0.9070671996
O -1.3231344505 0.2348825828 1.7102949782
C -1.2648519146 -0.734342634 2.7905012193
C -2.6153725597 -1.2960069191 3.1767908784
O -3.5596795403 0.1325487833 0.68058904
C -4.6418911072 -0.3388999345 -0.142287775
C -4.6346850922 0.2669561156 -1.5300209369
H 6.4827458744 -1.2204538906 -0.988689584
H 6.1028168352 0.506183884 -0.8894819154
H 5.9894812724 -0.5060595122 0.556063449
H 4.1054529085 -1.7799059059 -0.4760053527
H 4.213047227 -0.7531846079 -1.9308412149
H 1.7495038053 0.6597282951 2.1039528184
H 2.9853364739 1.9152159637 1.81983138
H 1.1997560613 3.664798239 1.8697215718
H -0.0190656981 2.4217039667 2.1507917855
H 1.2159688427 2.7427880514 3.3853665134
H 0.1558479111 -2.6888058309 -1.5067837267
H -0.1109595612 -0.9310266342 -1.7882275511
H -0.5811241229 -1.5322149856 2.4853821496
H -0.8221221072 -0.162365415 3.6076071442
H -3.3149262055 -0.4900602214 3.3821041861
H -3.0139329178 -1.9184549664 2.3786113105
H -2.4960916378 -1.9035639241 4.0687141864
H -4.5782025053 -1.429191343 -0.1976770074
H -5.533602822 -0.0458345022 0.4145380015
H -5.5137118536 -0.0633534293 -2.074008016
H -4.6337126323 1.352955601 -1.470621765
H -3.7433441357 -0.0441037676 -2.0734972413
*
