! pbe def2-sv(p) def2/J RI DEFGRID1 loosescf d4 GCP(DFT/SV(P)) printgap
%output
    printlevel normal
end
* xyz 0 1
C 1.0566236505 -0.8680727856 3.2048980213
C 1.2419054411 0.4735259747 2.5230846881
O 2.4293380903 0.517459088 1.7149187233
P 2.6317879856 -0.2152341264 0.3253555964
S 2.8408941778 -2.1692510839 0.3126925098
O 3.9338871542 0.5913048537 -0.0642968568
C 4.8714087617 0.0917698555 -1.0338090192
C 4.3167118667 0.1495820828 -2.4433998101
S 1.1029242119 0.5554495407 -0.9545722608
C 0.1525932378 -0.9677361702 -1.1992346166
S -1.0010714024 -1.320094482 0.1565894023
P -2.3051367012 0.2957330559 -0.2176570662
S -2.6442887706 0.7670979337 -2.0941740159
O -1.6001555817 1.4120615715 0.6632691391
C -1.8321128543 2.8185301558 0.4450170932
C -3.2378192384 3.2225356007 0.8363426692
O -3.5975135277 -0.0276891249 0.6470787571
C -4.7136435094 -0.7645652799 0.118204966
C -4.3614485108 -2.2109100655 -0.1637906396
H 0.2086453829 -0.8104638071 3.8797979127
H 0.8664285159 -1.6486500849 2.4703204545
H 1.9496963865 -1.1285201973 3.7671038661
H 1.4015280566 1.2685518766 3.2542749913
H 0.3726223919 0.7198154748 1.9049312545
H 5.7401140652 0.7408940277 -0.9164923097
H 5.137449994 -0.9362763121 -0.7665158674
H 5.0984194071 -0.1147992993 -3.148288061
H 3.493475272 -0.555600566 -2.5496495205
H 3.953034351 1.149749027 -2.6651019576
H 0.833900624 -1.8180884875 -1.250854598
H -0.407212505 -0.8408306388 -2.1249806078
H -1.0805518212 3.3089640773 1.0651685861
H -1.6414276746 3.0398483457 -0.6101474702
H -3.9578312459 2.7528681799 0.1673643403
H -3.4483413638 2.9090485743 1.8554564066
H -3.3370397483 4.3007857161 0.7599789595
H -5.4753695839 -0.6788242883 0.8941864737
H -5.053894246 -0.2677556472 -0.7961534013
H -3.9204271468 -2.671845066 0.7165406164
H -5.2596635125 -2.7521026673 -0.4434781202
H -3.6464400996 -2.2677878975 -0.9837131577
*
