! pbe def2-sv(p) def2/J RI DEFGRID1 loosescf d4 GCP(DFT/SV(P)) printgap
%output
    printlevel normal
end
* xyz 0 1
C 4.6615588845 -1.6967161216 -1.6442155884
C 4.7126524506 -0.325610415 -1.0029228881
O 3.7077320527 -0.1739353772 0.0148314855
P 2.1657401567 -0.045454533 -0.3352105774
S 1.7731304563 0.9657026836 -1.9763663067
O 1.5535965095 0.4381733089 1.0444438644
C 2.1081632894 1.490941242 1.8639709443
C 2.287911922 2.7871978049 1.1039751931
S 1.4295507292 -2.0250852978 -0.3611294404
C -0.2924584485 -1.6493008557 -0.7733945483
S -1.328206361 -1.4788306879 0.7169397065
P -2.272403671 0.3733661702 0.249611395
S -1.1733883998 1.95090675 -0.0937830356
O -3.3303813422 0.5230521651 1.4277392364
C -3.0105317074 1.1937986961 2.660551971
C -1.9444769408 0.4597988516 3.4474782547
O -3.1843094041 0.0361950351 -0.9929730554
C -4.2197244224 -0.9823508558 -0.9535460124
C -4.2990272268 -1.6332719931 -2.3188550226
H 4.6943752468 -2.471483917 -0.8827062493
H 3.7397125142 -1.8049441105 -2.2138093341
H 5.5066265684 -1.811368659 -2.3152853638
H 4.5650769605 0.4566254528 -1.7547583811
H 5.6509340492 -0.1614354542 -0.471353685
H 1.3772478077 1.6020952206 2.6668986366
H 3.0586315961 1.1352563978 2.2675160215
H 1.3431943887 3.0939541529 0.6577684279
H 2.6336830343 3.5606131561 1.7822325814
H 3.0183213328 2.6574106977 0.3058575817
H -0.6632458068 -2.4901175294 -1.3532461212
H -0.329129716 -0.7196110318 -1.347999793
H -2.6827117998 2.2106572243 2.4227433899
H -3.9610216112 1.222837031 3.1948497463
H -1.003643737 0.4770404883 2.8976205599
H -1.8031491778 0.9486705291 4.4060005046
H -2.234831126 -0.5757364887 3.6068618517
H -3.9720861574 -1.7080020755 -0.173716291
H -5.1516384271 -0.4775627287 -0.6945292587
H -5.1048277836 -2.360132043 -2.3191887784
H -4.4921914104 -0.88091001 -3.0783338344
H -3.3647172702 -2.1348334847 -2.5567408531
*
