! r2scan-3c def2/J RI DEFGRID2 scfconv6 printgap
%output
    printlevel normal
end
* xyz 0 1
C 4.3676344532 2.1544679479 -0.8946663962
C 4.6332121643 0.6683273905 -0.7681835013
O 3.4293313076 -0.1104888653 -0.8955611958
P 2.2792729496 -0.0790567562 0.1981040641
S 2.8976312067 0.0150625415 2.058645065
O 1.417709869 -1.3490107672 -0.1890714464
C 1.6268699467 -2.6463387631 0.3991442223
C 2.9605225736 -3.2392567527 -0.0019131665
S 0.9713071133 1.4373137321 -0.4595263302
C 0.0538531606 1.6031639983 1.0950743133
S -0.8946107544 0.1184249946 1.5462712609
P -2.0399275943 -0.1539718209 -0.2225048403
S -1.3539326013 -1.1332228133 -1.7657108011
O -2.4414398207 1.3714025631 -0.4806207461
C -2.7786588823 1.8483214305 -1.7981480264
C -4.1652520405 1.3928244541 -2.2039560522
O -3.319983701 -0.9050045899 0.3357993018
C -4.1538782782 -0.3660322164 1.3930982719
C -5.5764225827 -0.8260266582 1.1473258242
H 3.7814070561 2.5014510693 -0.0446295291
H 5.3128270476 2.6875109271 -0.9121920258
H 3.8167303851 2.3632289016 -1.8084264171
H 5.0893649868 0.4409699055 0.2007707614
H 5.2683980984 0.3003760236 -1.5749273693
H 1.553374383 -2.5463496483 1.4875811743
H 0.7883582841 -3.2365392677 0.0243848218
H 3.7708725559 -2.6438021757 0.4177263383
H 3.0319956738 -4.2533099599 0.3786567678
H 3.0531483739 -3.2491635189 -1.0849630775
H -0.6197007003 2.4471885721 0.9767734479
H 0.7526499752 1.7615208478 1.9172413672
H -2.7113182066 2.9338049596 -1.7154902484
H -2.0280757403 1.4815634582 -2.5050680541
H -4.4035354245 1.7921748154 -3.1846201755
H -4.1921504539 0.3041784516 -2.2494569291
H -4.9039345573 1.7386089857 -1.4853400987
H -3.7673830009 -0.7483287861 2.3404698314
H -4.077230114 0.7239930558 1.3846716995
H -5.6134380779 -1.9110685626 1.1139687461
H -6.2097823044 -0.468909373 1.9529861945
H -5.942337264 -0.4366175697 0.2012600073
*
