! pbe def2-sv(p) def2/J RI DEFGRID1 loosescf d4 GCP(DFT/SV(P)) printgap
%output
    printlevel normal
end
* xyz 0 1
C 3.1366893988 2.2287305249 -1.8911047906
C 1.982782054 1.2584628137 -1.7544324246
O 1.4641614673 1.2764003023 -0.4007702366
P 1.8230781953 0.179658994 0.6700340159
S 1.2154042885 0.6592921872 2.4645280595
O 3.3974278871 0.0636341307 0.4587222425
C 4.2328719841 -0.9122104398 1.1088865079
C 4.6580412295 -0.4587780493 2.4919846584
S 1.1814943109 -1.7289026825 -0.0565163347
C -0.1275134188 -2.1098083959 1.1339751087
S -1.7927747121 -2.1673610122 0.4105414177
P -1.8510478181 -0.2766889915 -0.5615929616
S -1.114070747 -0.2045902271 -2.3799152825
O -1.1952736974 0.6604563822 0.5334749454
C -1.7113170823 1.9666169111 0.8834181836
C -1.5385868672 2.9537526898 -0.2500869718
O -3.3860401514 0.1110617095 -0.485100674
C -4.3454892431 -0.3249406587 -1.4693332459
C -5.4475834442 0.712493545 -1.5451753274
H 3.9618136507 1.9243422057 -1.2527983209
H 3.4652693651 2.2399086483 -2.9255106196
H 2.8198715795 3.2275794017 -1.6039197624
H 2.2820488614 0.2385170507 -2.0095397079
H 1.1370704533 1.5445017921 -2.3836761284
H 3.6995171447 -1.8661540651 1.1521635328
H 5.0934185595 -1.0082437767 0.4437279146
H 3.7942682237 -0.3663953913 3.1463146093
H 5.3433886736 -1.1889758163 2.9100294655
H 5.1531832255 0.5067070697 2.4340374606
H -0.0954023429 -1.3645754829 1.9344466625
H 0.0512947925 -3.1111875498 1.5183963024
H -2.7603975872 1.8565619789 1.1616254876
H -1.1186470073 2.2442664766 1.7575401576
H -2.0789929527 2.6075582733 -1.1306938125
H -1.9256171442 3.9215247143 0.0525802616
H -0.48522493 3.0478510188 -0.5033348484
H -3.8337527351 -0.4378588919 -2.4313621789
H -4.7305611911 -1.2962868961 -1.1503426253
H -6.1969122024 0.3797591278 -2.2557716804
H -5.9081991632 0.8379654613 -0.5695659428
H -5.0451467547 1.6673521804 -1.872164911
*
