! pbe def2-sv(p) def2/J RI DEFGRID1 loosescf d4 GCP(DFT/SV(P)) printgap
%output
    printlevel normal
end
* xyz 0 1
C 4.4027864942 -3.406752244 -1.5767470847
C 3.0050192533 -2.9767699033 -1.9935136236
O 2.6766204775 -1.6861303051 -1.4459654534
C 2.1728847523 -1.6306036741 -0.2297223247
O 1.9662480408 -2.5896352398 0.4783149894
C 1.8641919336 -0.2001004248 0.1785151963
C 0.9886613358 0.4757985384 -0.8788978441
H 1.5518556342 0.6080732097 -1.8050363173
C 0.4764990485 1.8095939337 -0.3757290086
O -0.7114495584 2.0176904258 -0.2048842388
O 1.4305009484 2.659637449 -0.1477990927
C 1.0905499429 3.9349048077 0.4466634924
C 1.015339339 3.8106947453 1.9592583042
S -0.4625216215 -0.5399408697 -1.332600035
P -1.7579944458 -0.1530323213 0.2918323121
S -1.197684271 0.3010170533 2.1269192552
O -3.0802569352 0.588904089 -0.2127571551
C -3.4554371331 1.9357859118 0.0759052616
O -2.3011546397 -1.6651901583 0.2144030685
C -3.309462498 -2.1423709873 1.1076055922
H 4.6465095802 -4.3480107975 -2.058091992
H 5.1293116953 -2.654507568 -1.8708220593
H 4.4459209202 -3.5410812088 -0.4982898171
H 2.2580578936 -3.6992237447 -1.6528035308
H 2.9342686287 -2.8387636889 -3.0723287801
H 2.7980604344 0.3560244156 0.2746576953
H 1.359337339 -0.2292594345 1.1466799095
H 1.8983271459 4.5975955037 0.1379487666
H 0.1360692018 4.2703182007 0.0343306238
H 1.9697480714 3.4819245849 2.3600480514
H 0.7611785439 4.7747538552 2.3866137901
H 0.2522253882 3.0878850662 2.2439458671
H -3.0370088276 2.2445372179 1.0347451489
H -4.5426157305 1.9390292842 0.1135723777
H -3.0919221657 2.5908563461 -0.7126891429
H -4.2804798609 -1.735097931 0.8272122128
H -3.0685709119 -1.855236652 2.1336981825
H -3.3033239274 -3.2248553357 1.007856612
*
