  20
  -28.9182765900000       0.500002645487323      !md2
 C         -2.9100150506       -0.3700985498       -0.0045824129
 C         -2.6711006426        1.0131731345       -0.0014050245
 C         -1.3926095850        1.4955840436        0.0023719761
 C         -0.2861984614        0.6177279645        0.0025962797
 C          1.0378192732        1.0858832787        0.0104782953
 C          2.1083073514        0.2139090825        0.0107734949
 C          1.8517709614       -1.1791569180        0.0073695249
 C          0.5760490473       -1.6572479719        0.0022237341
 C         -0.5314927009       -0.7819481779       -0.0001593961
 C         -1.8603367357       -1.2471170359       -0.0036720888
 N          3.4033135184        0.6635720532       -0.0531892097
 H         -3.9271367647       -0.7336293718       -0.0080652035
 H         -3.5098622311        1.6943523930       -0.0020179083
 H         -1.2086400952        2.5608406188        0.0045860681
 H          1.2130315697        2.1527156501        0.0135003528
 H          2.6909733392       -1.8598563295        0.0078502695
 H          0.3937778577       -2.7226376913        0.0018754347
 H         -2.0362428120       -2.3139319857       -0.0063018553
 H          4.1225894288        0.0183971585        0.2262051413
 H          3.5605899052        1.6263523158        0.1917622546
  20
  -28.9182765800000       0.499997354512677      !mtd8
 C         -2.9099937685       -0.3700993854       -0.0045289131
 C         -2.6710844227        1.0132049018       -0.0014942199
 C         -1.3926148936        1.4956013376        0.0022321034
 C         -0.2861865962        0.6177048772        0.0025708098
 C          1.0378064676        1.0858283365        0.0105028377
 C          2.1082956792        0.2138207639        0.0108125120
 C          1.8518114005       -1.1792033381        0.0071999091
 C          0.5760296707       -1.6572376070        0.0021085932
 C         -0.5314807825       -0.7819784008       -0.0001541143
 C         -1.8603689588       -1.2471230407       -0.0035670306
 N          3.4033085370        0.6636907636       -0.0531298292
 H         -3.9271607566       -0.7335451474       -0.0073123066
 H         -3.5098925119        1.6943327404       -0.0020073709
 H         -1.2085338594        2.5608335390        0.0043032702
 H          1.2131691081        2.1526339996        0.0136422769
 H          2.6909747881       -1.8599300915        0.0075063493
 H          0.3938283388       -2.7226549575        0.0017672941
 H         -2.0362468268       -2.3139445586       -0.0056877442
 H          3.5601086003        1.6264256294        0.1925686099
 H          4.1226601663        0.0190709294        0.2275057857
