! pbe def2-sv(p) def2/J RI DEFGRID1 loosescf d4 GCP(DFT/SV(P)) printgap
%output
    printlevel normal
end
* xyz 0 1
C 4.9363850079 -1.6239239078 -0.7400637509
C 4.4293350096 -0.5339226087 -1.6607363451
O 3.03508796 -0.2402479871 -1.4340493252
P 2.5347139087 0.4410971849 -0.088922982
S 3.7503781391 1.7413130533 0.7268651596
O 2.2010658076 -0.8347593657 0.8104669572
C 2.1401985954 -0.7659594426 2.2430098421
C 0.9953331225 0.0985231338 2.7301187124
S 0.6770171651 1.1658257774 -0.7836137602
C 0.0143036495 -0.3828353646 -1.477070231
S -0.793911084 -1.4465973563 -0.2554796037
P -2.5051302147 -0.2476866169 -0.0073054032
S -3.23950909 0.6244452961 -1.6093412925
O -1.9976049049 0.6944773164 1.161325375
C -2.6945143059 1.9029653226 1.5380071073
C -2.0508502836 3.1116174655 0.8880667328
O -3.553401655 -1.1559751692 0.7727675186
C -4.5132531156 -1.9834443587 0.0924701069
C -3.853276852 -3.1407013287 -0.6290038369
H 4.2986725559 -2.5015462436 -0.8065183641
H 5.949922212 -1.8899671766 -1.023464903
H 4.9399802957 -1.2668364816 0.2888695366
H 4.4638159973 -0.8372774975 -2.7079703917
H 5.002955544 0.3876202791 -1.5208487248
H 2.0213826339 -1.8052392042 2.5516635445
H 3.0927876401 -0.3693050239 2.6090968125
H 0.9728522977 0.0892602782 3.8151147608
H 1.1391246368 1.1243845109 2.3891002741
H 0.0451162699 -0.267030722 2.348689269
H 0.8218868096 -0.954188537 -1.9235150711
H -0.7209894898 -0.0803287311 -2.2235317786
H -3.7465192112 1.8183276547 1.2518494964
H -2.6118422892 1.9424932639 2.6251933789
H -2.5396870847 4.0133132683 1.2423644162
H -0.9931908011 3.152697024 1.1341867825
H -2.1480087368 3.0550654141 -0.1941347189
H -5.1743905036 -2.3272116298 0.8889985158
H -5.071141296 -1.3582196794 -0.6121183297
H -3.2487341373 -2.767870405 -1.454787228
H -3.2121877487 -3.693997184 0.0525002079
H -4.6183224609 -3.8017753111 -1.0233478205
*
