! pbe def2-sv(p) def2/J RI DEFGRID1 loosescf d4 GCP(DFT/SV(P)) printgap
%output
    printlevel normal
end
* xyz 0 1
C 3.5411965297 -2.2711572661 1.5982725871
C 2.1385160833 -2.1626022337 1.0362065462
O 1.7503583517 -0.7866861886 0.8571822005
P 2.3631958949 0.1113939936 -0.3180106969
S 2.9839501272 -0.8615645139 -1.8944702931
O 3.5269912591 0.971606395 0.3239015009
C 3.4421769752 1.630940139 1.611390806
C 3.0025546846 3.0733738321 1.4615397131
S 0.7543803125 1.4574091595 -0.6210487075
C -0.1639988958 0.3927627835 -1.7604366166
S -0.9217904645 -1.0289005845 -0.9479808312
P -2.5253500736 0.0705020019 -0.0562820495
S -3.3278728125 1.4498043658 -1.1871493494
O -1.971043614 0.7346002499 1.2576254845
C -1.318940723 -0.0012397892 2.3235695038
C -0.474305452 0.9819595603 3.1065364041
O -3.4500863805 -1.0780954808 0.5358468509
C -3.934889138 -2.2213804622 -0.1935372301
C -4.6595272447 -1.8403522928 -1.4671490626
H 4.2519582686 -1.8373118113 0.8950375174
H 3.6148404514 -1.7455559522 2.5466957636
H 3.7891216954 -3.317327661 1.7469892537
H 1.3927064259 -2.5661795288 1.722415535
H 2.0672198172 -2.6727465671 0.0707007751
H 2.7583045622 1.0704715226 2.2529039168
H 4.4574622051 1.569158132 2.0069182315
H 3.6706585594 3.59857643 0.784602419
H 1.9917374672 3.1305243352 1.0613849834
H 3.0270847781 3.5548215817 2.4342271065
H 0.5192452131 0.0035831402 -2.5159525864
H -0.9474179729 1.0083077428 -2.2058658198
H -2.0973474706 -0.4523837493 2.9414271509
H -0.7044287222 -0.7897841319 1.8788702378
H -1.0995654869 1.7775130922 3.500798331
H 0.0126040483 0.4634834833 3.9261694932
H 0.276634097 1.4228049162 2.4557715229
H -3.0828747372 -2.8708207817 -0.4129572296
H -4.604334955 -2.7117235658 0.5154412963
H -5.0745159429 -2.7313630046 -1.9271566292
H -5.4615444406 -1.1380911748 -1.2522161868
H -3.9698101851 -1.3687035695 -2.1658990394
*
