! pbe def2-sv(p) def2/J RI DEFGRID1 loosescf d4 GCP(DFT/SV(P)) printgap
%output
    printlevel normal
end
* xyz 0 1
C 1.4126205513 2.1810073772 2.1728798099
C 2.7856931409 1.5714189566 2.3741040251
O 3.3304365648 1.048409357 1.149546362
P 2.8566800739 -0.3202764953 0.5132670816
S 2.5077734614 -1.7864493394 1.7752417347
O 4.1203494432 -0.4935565878 -0.4256114431
C 4.486502811 -1.7601762069 -0.9987173174
C 3.482535138 -2.2464316457 -2.0256797968
S 1.2692212895 0.1673010793 -0.8283022122
C -0.0363981276 -0.9218893288 -0.1842440052
S -1.2998892714 -0.0551292935 0.7772018683
P -2.7810500702 0.210320572 -0.745909619
S -2.327028852 -0.4182618164 -2.5392487928
O -3.2211686686 1.7389573143 -0.6377845954
C -2.5686414095 2.7983166104 -1.3567472449
C -1.1903637906 3.1018965134 -0.8049269446
O -4.0601740769 -0.5126223477 -0.1763058098
C -4.5818330497 -0.2676679084 1.1569153777
C -4.4396397208 -1.5191620678 1.9995667834
H 1.115217341 2.6973510845 3.0799255702
H 1.4358732317 2.8870188132 1.3465787825
H 0.6797365187 1.4044556287 1.9572722383
H 2.7503084974 0.7662443938 3.1155975357
H 3.5148249199 2.3225982215 2.6821092171
H 5.4600288677 -1.5678642101 -1.4519877153
H 4.5930244755 -2.4904184124 -0.1897934481
H 3.8774406836 -3.126291179 -2.5237179008
H 2.5442644694 -2.5112440165 -1.5393536625
H 3.2894951398 -1.471593965 -2.7636818743
H 0.4216671745 -1.6588221774 0.4789273784
H -0.5166029152 -1.3903608723 -1.0436330665
H -2.5102227244 2.5168541698 -2.4129053111
H -3.2444705653 3.6466251276 -1.2368096096
H -1.2402622898 3.2516463825 0.270750518
H -0.508256955 2.2803706225 -1.0203356064
H -0.8081180928 4.0015280147 -1.2764901881
H -4.0493938699 0.5753601758 1.6023079649
H -5.6299413075 -0.0032486747 1.0092636325
H -3.3899548659 -1.7536932671 2.1587565138
H -4.9161895698 -1.3561067238 2.9608962495
H -4.9158484037 -2.3584709668 1.5004781682
*
