! pbe def2-sv(p) def2/J RI DEFGRID1 loosescf d4 GCP(DFT/SV(P)) printgap
%output
    printlevel normal
end
* xyz 0 1
C 4.5220169875 -1.5530515167 1.1490812383
C 4.5064557832 -0.0935308058 0.7426540555
O 3.1838953403 0.4707133378 0.7991096526
P 2.0320945737 0.0511228123 -0.2123101502
S 2.6317885009 -0.2651655173 -2.0563945017
O 0.9815989233 1.2251534748 0.0064025528
C 0.9852701905 2.4088976412 -0.8121602978
C 2.2146668293 3.2579875063 -0.5728314249
S 1.0686548857 -1.5023179074 0.8186491839
C -0.051402471 -2.0949946294 -0.4910870146
S -0.8481633657 -0.7708235746 -1.4460813739
P -2.0981397282 0.1839169424 -0.0022594279
S -2.7161115277 1.8953328527 -0.717931819
O -1.3487930109 0.3082159029 1.3729105889
C -1.5742497786 -0.478595407 2.5759709832
C -0.7254312466 0.1419100395 3.6647339934
O -3.1962983458 -0.9225780965 0.3416621824
C -4.1829468376 -1.3285248551 -0.6261720839
C -5.4579454973 -0.5231123615 -0.4721865398
H 5.5497033577 -1.8967930255 1.2086394651
H 4.0402423262 -1.6825522691 2.1148726193
H 3.9926721816 -2.1510618693 0.4085241654
H 4.8890775595 0.0252634957 -0.276184502
H 5.0835176394 0.5245806348 1.431618403
H 0.9181145666 2.1034201696 -1.8626437559
H 0.0665483296 2.9283597568 -0.5312589286
H 2.3177991757 3.4756675962 0.4870273914
H 3.1029957951 2.7280622303 -0.9154435123
H 2.1202749751 4.1862515776 -1.1274906969
H -0.7975977106 -2.7223073742 -0.0093950602
H 0.5203463871 -2.6615567504 -1.224393974
H -2.6373496289 -0.4399149244 2.8167680092
H -1.2743901107 -1.5104415582 2.385499274
H -0.8651928965 -0.4157495727 4.585024601
H 0.3228398794 0.1086798744 3.379125924
H -1.0128419804 1.1778491284 3.8206390704
H -3.7676227558 -1.2149937214 -1.6325197378
H -4.3556010102 -2.3862121933 -0.4176944707
H -5.2638744865 0.5290173271 -0.6694345579
H -6.1966588328 -0.8850649047 -1.1799229573
H -5.8465414892 -0.624822506 0.5371321167
*
