! pbe def2-sv(p) def2/J RI DEFGRID1 loosescf d4 GCP(DFT/SV(P)) printgap
%output
    printlevel normal
end
* xyz 0 1
C 3.2658832782 2.1194652829 -0.7370113928
C 3.6961521227 0.995832754 0.1843637216
O 3.0738686303 -0.2510118041 -0.1872223111
P 1.9023926642 -0.9627463085 0.6253705715
S 1.3418138921 -0.0064797708 2.2440526152
O 2.3880193501 -2.4542006384 0.8801948034
C 3.0367158265 -2.8500639287 2.1037578773
C 4.4360957606 -2.2774442975 2.2059457632
S 0.5403634284 -1.5106867724 -0.8926571433
C 0.3853216691 0.0972699911 -1.7258230588
S -0.3622565187 1.3728470303 -0.6867256881
P -2.352525224 0.6202514415 -0.7952747766
S -2.8792087343 -0.0899603832 -2.5391539489
O -3.2088087642 1.7924125397 -0.1505882887
C -3.1286324691 3.1837173968 -0.518914686
C -3.314438343 3.4088271883 -2.0044526375
O -2.5056187306 -0.5125300373 0.2887811768
C -2.2690605889 -0.3237864931 1.7051492865
C -1.9968514023 -1.6844537341 2.3106707379
H 3.8178348134 3.016405859 -0.4750257298
H 3.477419826 1.864168513 -1.7720188476
H 2.2010237454 2.3185312299 -0.6232630746
H 3.4325171023 1.2277799544 1.2216753001
H 4.768865188 0.8099125372 0.107001895
H 2.4222082867 -2.5195029214 2.9477021937
H 3.0468637311 -3.9397382181 2.0562990365
H 4.3862745054 -1.1938457387 2.3071882598
H 4.9314415366 -2.690039195 3.0792371488
H 5.0079851255 -2.5250375596 1.3153398897
H -0.2580655135 -0.0742821539 -2.5911810036
H 1.3679481747 0.4521677626 -2.0251207494
H -3.92971097 3.6467536116 0.0598837769
H -2.1600525266 3.5670408412 -0.1860051982
H -4.2491691252 2.966617078 -2.3410384504
H -3.3258238117 4.4746549667 -2.208254009
H -2.498379476 2.9485066787 -2.5597049993
H -1.4141993969 0.3462479304 1.8421990667
H -3.1594781848 0.1385564969 2.1340969318
H -2.8425351221 -2.3449849089 2.1440394346
H -1.1142261169 -2.1273183748 1.8523296044
H -1.8221296188 -1.5699977002 3.3756961535
*
