! r2scan-3c def2/J RI DEFGRID2 scfconv6 printgap
%output
    printlevel normal
end
%cpcm
    smd true
    smdsolvent "water"
end
* xyz 0 1
C 3.5917541216 1.2977755443 2.6786032447
C 2.3766961153 1.608337889 1.8299171122
O 2.4423294758 0.956498237 0.5451856279
P 2.2765121003 -0.6065394985 0.3721838493
S 1.0733349722 -1.4988078427 1.6415013013
O 3.7848732135 -1.1019099698 0.4133442601
C 4.1481761713 -2.4834086271 0.5779008129
C 3.7703771662 -3.3221270268 -0.6260421158
S 1.7424913048 -0.6760330532 -1.672338735
C -0.0367097865 -0.5826959205 -1.4101887985
S -0.5216591251 1.0334656992 -0.7128563537
P -2.5885956375 0.5276719222 -0.5825377829
S -3.318668797 -0.4367066315 -2.1156670573
O -3.2996626492 1.8942445834 -0.1919514401
C -3.7737324043 2.8291781342 -1.1808678589
C -2.6435442921 3.432629898 -1.9884234693
O -2.7154885505 -0.3085985259 0.7485934819
C -2.4056488806 0.2447927689 2.0531572404
C -2.3535782002 -0.9006754561 3.0409717111
H 4.5006325224 1.5324221201 2.13106506
H 3.5549862155 1.8858987266 3.5902231114
H 3.601458592 0.2400438229 2.9390505035
H 2.3113870306 2.6679589167 1.5806534446
H 1.4596960979 1.2878254846 2.3353059357
H 5.2286840965 -2.4536202421 0.7243586111
H 3.6602023404 -2.8650385514 1.4808454656
H 4.1739513357 -4.3227476385 -0.5083078252
H 2.6863649191 -3.3874175354 -0.7125507889
H 4.1653611726 -2.8766009172 -1.5355908547
H -0.3426417014 -1.3670477694 -0.7141491227
H -0.5175162153 -0.7130655522 -2.3786532904
H -4.4792845553 2.308678615 -1.8351885945
H -4.297439787 3.5831661071 -0.591545592
H -1.8858945717 3.8491475165 -1.3291712676
H -2.1837715542 2.6685892654 -2.6137352887
H -3.0381824578 4.2168271901 -2.6264135242
H -1.4439410339 0.7628929049 1.9899164984
H -3.1869641095 0.963643091 2.3058701696
H -3.2853340676 -1.4578007168 3.0124263565
H -1.5335751873 -1.5716808972 2.7954686976
H -2.1987447142 -0.503026006 4.0385619269
*
