! pbe def2-sv(p) def2/J RI DEFGRID1 loosescf d4 GCP(DFT/SV(P)) printgap
%output
    printlevel normal
end
* xyz 0 1
C 2.6453806542 0.6317118139 -3.3474507107
C 2.7955424443 0.9416748451 -1.8733502317
O 2.4523895068 -0.2496103859 -1.1350215879
P 2.1656888682 -0.2453722429 0.4218266017
S 1.1460080829 1.3187002432 1.0471685806
O 3.639054606 -0.3543600811 1.0091507364
C 3.996961486 -0.8523383385 2.3134455146
C 3.1222458247 -0.3064510292 3.4220777735
S 1.3977491606 -2.183398095 0.6717775538
C -0.2004125081 -2.0136194362 -0.1664592826
S -1.4598941601 -1.1427764721 0.8137392457
P -1.9188877543 0.4722230731 -0.5091623525
S -0.8503192959 0.593091131 -2.1404257737
O -1.846254532 1.8133108008 0.3018315311
C -2.4411243767 1.9997637611 1.6093112841
C -3.729700487 2.7872461022 1.4964958504
O -3.4974440107 0.3232082999 -0.6942453749
C -4.1898363447 -0.8786579493 -1.0735181465
C -3.7674206434 -1.3980526876 -2.4324982724
H 3.2573584776 -0.2264004795 -3.6086984794
H 1.604776703 0.4115036069 -3.5742839182
H 2.9608745914 1.4941807654 -3.9250149709
H 2.1242351015 1.750556626 -1.5643582473
H 3.8232992108 1.2113433901 -1.6183645079
H 3.9407857438 -1.9437029009 2.2779244926
H 5.035458988 -0.5379092614 2.432558653
H 3.4865026576 -0.6682073757 4.3782252728
H 3.1362244797 0.78115691 3.4180382767
H 2.0931363327 -0.6381223129 3.285633048
H -0.5488229629 -3.0310281005 -0.3244932908
H -0.0624001098 -1.4813647548 -1.1127088976
H -2.6093938015 1.0210790349 2.0680426733
H -1.6814990221 2.5397946583 2.1787441097
H -4.45667401 2.2361194867 0.9057119876
H -4.1277065064 2.9586501785 2.4915849686
H -3.5390304744 3.7424652764 1.015222266
H -4.0197352221 -1.6318313174 -0.2985131671
H -5.2394705462 -0.5793883377 -1.0735545833
H -2.7241257949 -1.7088260072 -2.4134201519
H -4.3865501748 -2.2480912316 -2.7003227904
H -3.8767816713 -0.620849412 -3.1850270375
*
