! pbe def2-sv(p) def2/J RI DEFGRID1 loosescf d4 GCP(DFT/SV(P)) printgap
%output
    printlevel normal
end
* xyz 0 1
C 3.6234058953 -4.0984791291 -0.7645438632
C 2.1539881803 -3.7293539372 -0.8914361658
O 1.9000840542 -2.4199295358 -0.3458255303
C 2.1229044097 -1.3706181615 -1.1104069622
O 2.493265573 -1.4188382333 -2.2616983884
C 1.8149547043 -0.0767256934 -0.3782768086
C 0.7033899846 0.6579620362 -1.1247256146
H 1.0151044251 0.8275061725 -2.1607285319
C 0.3495593777 1.9915396712 -0.4912418899
O -0.7949450908 2.302829351 -0.2286965154
O 1.4036000553 2.7344429161 -0.304684337
C 1.2456779986 4.0089698273 0.3581566694
C 1.4814161646 3.8532261758 1.8511201423
S -0.8157056339 -0.3382984255 -1.2556424557
P -1.7076966122 -0.0045873031 0.6552554326
S -0.5950775674 0.4565152603 2.1978759243
O -2.995725077 0.8950598414 0.5097975305
C -3.9819710797 0.6890942246 -0.5187199767
O -2.4209010893 -1.4355698089 0.8439313464
C -1.6546205607 -2.6122619311 1.1099591103
H 4.2311323038 -3.4273433714 -1.3670123154
H 3.9384976269 -4.0278883057 0.2729144471
H 3.7688415712 -5.1149389159 -1.1148678422
H 1.525439518 -4.3965326389 -0.301478708
H 1.8418968541 -3.7345449295 -1.9396847718
H 2.7053326288 0.5540257365 -0.3787669941
H 1.5208194667 -0.2979947634 0.6487582237
H 1.9967112569 4.6514710999 -0.1016557677
H 0.2396939951 4.3859081938 0.156966375
H 0.7600797461 3.1569162461 2.2758501999
H 2.4812877297 3.4727498307 2.0375679559
H 1.3674959171 4.817431944 2.3348720947
H -3.5214065565 0.7973040697 -1.5006626987
H -4.7235546022 1.466836668 -0.356144171
H -4.4245127094 -0.3003635805 -0.417233299
H -2.3786828988 -3.3856358794 1.3522765097
H -0.9822354172 -2.4389028561 1.9519809501
H -1.0769083962 -2.8876866981 0.2272071579
*
