! r2scan-3c def2/J RI DEFGRID2 scfconv6 printgap
%output
    printlevel normal
end
* xyz 0 1
C 4.1147893073 -3.7858108251 -2.278483345
C 3.4049908452 -3.9334256128 -0.9420598219
O 3.3002170931 -2.6619245947 -0.2717282526
C 2.2580973738 -1.897172568 -0.5321631035
O 1.350077156 -2.1974677416 -1.275368398
C 2.3376768334 -0.5912904813 0.2329953541
C 1.038678906 0.1855761404 0.1058714688
H 0.6911656924 0.1378992411 -0.9378946956
C 1.187354897 1.6579180473 0.4388852523
O 2.2024582458 2.2797748321 0.228853018
O 0.0786276273 2.1564650327 0.943845941
C 0.0119909461 3.5699489677 1.2245046368
C -0.6856466993 4.3013354574 0.0911260391
S -0.2751717447 -0.5817723267 1.1094961518
P -1.9351695162 0.2911848164 0.1071311306
S -1.6264464346 1.016381078 -1.6841827485
O -3.0121545146 -0.8972313732 0.1568609031
C -2.8411986274 -2.0739520398 -0.6374322715
O -2.6188233653 1.3300757466 1.0784261605
C -2.9870042615 0.9888461722 2.4294595147
H 4.2388366164 -4.7648352597 -2.729326652
H 3.527058792 -3.161414941 -2.9478288548
H 5.0907059866 -3.330155801 -2.1356295172
H 3.9769189286 -4.5569785641 -0.2549386155
H 2.3987159369 -4.3387279196 -1.0802978419
H 3.1507299869 0.0109997097 -0.1810323702
H 2.5744704529 -0.8059018751 1.2755963773
H -0.556160687 3.6437475966 2.1523166879
H 1.031953943 3.9375663056 1.3655290231
H -0.107940983 4.2152518369 -0.8266912223
H -1.6690300368 3.8694745564 -0.0807156608
H -0.7914917399 5.3494742312 0.3493492259
H -1.9653118573 -2.6307895773 -0.3024671324
H -2.7201464447 -1.8045440635 -1.6878528652
H -3.7462080688 -2.658490852 -0.4947993686
H -3.3332771499 1.9186604138 2.8730225126
H -2.1193099627 0.6019196872 2.9639775009
H -3.781503712 0.245374294 2.4203130099
*
