! r2scan-3c def2/J RI DEFGRID2 scfconv6 printgap
%output
    printlevel normal
end
%cpcm
    smd true
    smdsolvent "water"
end
* xyz 0 1
C 0.4328265311 -1.663767086 2.7810219855
C 1.5641834767 -0.6618716369 2.6639632664
O 1.3829138731 0.1693292289 1.4935619094
P 2.2423751367 0.0167420816 0.1771684099
S 2.9616523072 -1.7682128714 -0.2088162218
O 3.3174755931 1.1662304331 0.4134857202
C 4.3765978646 1.4400766029 -0.5275211594
C 5.6520961413 0.7247913059 -0.126168338
S 0.9845529574 0.8722656915 -1.2874126091
C 0.2298117903 -0.6672974613 -1.8847535413
S -0.7285323073 -1.5259778008 -0.612053359
P -2.112064517 0.0339025078 -0.2346066029
S -2.6714773446 1.0649475357 -1.8101608704
O -1.4186890382 0.8581311799 0.9229237341
C -1.497778685 2.291537829 1.0145867126
C -2.8331282291 2.720341371 1.5852335124
O -3.2336625779 -0.7075525409 0.6086485846
C -4.0813744891 -1.7416645551 0.0701577375
C -5.3164069395 -1.1584644245 -0.5890969563
H -0.5248966518 -1.1521881295 2.7184896882
H 0.4904826426 -2.3942424862 1.9766443956
H 0.5074217841 -2.1770992355 3.7342453035
H 2.5303654453 -1.1703020228 2.5988597344
H 1.5703136203 0.0351545949 3.503419845
H 4.0564518616 1.1406284894 -1.5295469164
H 4.5001934406 2.5241157897 -0.4951065592
H 6.4469618607 1.0005657896 -0.8115432768
H 5.934285017 1.0053215484 0.8846925435
H 5.5082454273 -0.3527188984 -0.1648333158
H 1.0083279417 -1.3595256357 -2.203611184
H -0.4213470927 -0.3855925564 -2.711707826
H -0.6639318541 2.5650767416 1.6630097785
H -1.3435934808 2.7202044855 0.0182879227
H -2.8488425213 3.7994895428 1.6997990193
H -3.6308720667 2.4223010136 0.9057707107
H -2.9990541016 2.2484912612 2.5497889725
H -3.5052332426 -2.3468412546 -0.6359015358
H -4.3447409653 -2.3492809768 0.9380257191
H -5.953714637 -1.9673119701 -0.9315866976
H -5.8649017978 -0.5450338942 0.1203620564
H -5.0372392291 -0.5422732565 -1.4408483525
*
