! pbe def2-sv(p) def2/J RI DEFGRID1 loosescf d4 GCP(DFT/SV(P)) printgap
%output
    printlevel normal
end
* xyz 0 1
C 5.1417432099 1.0594293819 -0.6097902063
C 4.7088863091 -0.3924911747 -0.5716326115
O 3.4648428346 -0.5590558576 0.1324305595
P 2.0668697776 -0.1091483414 -0.5073371943
S 1.9665729312 -0.250855163 -2.4498234178
O 1.8079341953 1.370273871 0.0081550489
C 1.817424179 1.7014434089 1.4168816672
C 2.3171668202 3.123599927 1.5646521886
S 0.8880641492 -1.4003993016 0.6763696032
C -0.2768839158 -2.0219732212 -0.58704482
S -1.9889398206 -1.9227817522 -0.043148767
P -2.0928994171 0.1958448992 0.1748880389
S -1.1629973418 1.1993464083 -1.232453581
O -1.5017490653 0.6256053923 1.5738530412
C -2.0826337669 0.3579069967 2.8770620609
C -1.8597953184 -1.0729562212 3.3237706854
O -3.6414100576 0.4582595597 0.3966409503
C -4.7018557614 -0.0968731046 -0.4046857442
C -4.5520914857 0.2261152506 -1.8761294579
H 6.0947123065 1.1378064775 -1.1235501915
H 4.3997524024 1.6491942285 -1.1487432464
H 5.2436493908 1.4510402233 0.399295398
H 5.4125575916 -1.0129378784 -0.0149042778
H 4.5872888526 -0.7845349048 -1.5863337278
H 0.7891535006 1.6032093107 1.775048171
H 2.4572235146 0.9879368683 1.9452757911
H 3.3384290345 3.2071068881 1.2032147381
H 1.6871863079 3.7936506633 0.9859090328
H 2.2801206075 3.4065403482 2.6116816036
H -0.0723035563 -3.0754133215 -0.7607671982
H -0.1386186193 -1.4365238883 -1.5004470114
H -1.5623486986 1.0621228659 3.5285767114
H -3.1446227862 0.6041074602 2.8390100709
H -2.1361305737 -1.1592896358 4.3699406852
H -2.4664514058 -1.7607205862 2.7404473654
H -0.8131361442 -1.3450205041 3.206223262
H -4.7187284766 -1.1782963964 -0.2457186341
H -5.6021745335 0.3569226326 0.013331204
H -5.413138549 -0.1501479512 -2.4188578042
H -4.473363011 1.300733899 -2.0235841688
H -3.6509195527 -0.2390868064 -2.273503072
*
