! pbe def2-sv(p) def2/J RI DEFGRID1 loosescf d4 GCP(DFT/SV(P)) printgap
%output
    printlevel normal
end
* xyz 0 1
C 5.4144396904 -1.7612460641 -1.0862292879
C 4.5668752403 -0.4995900955 -1.0476090424
O 3.1643176363 -0.8160716598 -1.1371962226
C 2.5126703325 -1.0950750045 -0.0248835364
O 3.0057339312 -1.1049902573 1.0791828296
C 1.0530445545 -1.4126019362 -0.3048841833
C 0.3936227087 -0.2723248961 -1.0830020698
H 0.9216605464 -0.1167241301 -2.0276590213
C 0.402737901 1.0116077958 -0.2811290214
O -0.6175592568 1.5829811888 0.0535395897
O 1.6079667043 1.408991313 0.0090286043
C 1.7580142915 2.5608378479 0.871599811
C 3.1991950542 2.6060718346 1.3365076087
S -1.325251088 -0.6441857259 -1.5365596568
P -2.3781449076 -0.2314111928 0.2809234382
S -1.5450719322 -0.3572709945 2.0527062303
O -3.3699720645 0.9909436478 0.0002130583
C -3.22519083 2.3544638893 0.3922261617
O -3.4406704019 -1.4186912243 0.2157093821
C -4.3239439756 -1.6384932192 -0.8966526011
H 6.4645249539 -1.4883563586 -1.0840717656
H 5.2084620819 -2.376358364 -0.2131516045
H 5.1945774972 -2.3339045848 -1.9829584309
H 4.75838634 0.1342885035 -1.913350254
H 4.7396135675 0.0540984733 -0.1209996304
H 0.5465011946 -1.5789584622 0.6487630871
H 1.0004160328 -2.3220053067 -0.9053141368
H 1.4842418467 3.4500974412 0.2970526446
H 1.0619299693 2.4499068056 1.7085330554
H 3.3267150811 3.4355000105 2.0237624487
H 3.4499019079 1.678936531 1.846231861
H 3.8636456157 2.7364109683 0.4876003723
H -2.6947334363 2.4218058768 1.3418660509
H -4.239131115 2.7363420326 0.4926470472
H -2.6768644307 2.9011989319 -0.372479561
H -3.7458610158 -1.7773994796 -1.810700897
H -5.0014575114 -0.7937055388 -1.0063334049
H -4.8720290513 -2.5438819594 -0.6482307241
*
