! r2scan-3c def2/J RI DEFGRID2 scfconv6 printgap
%output
    printlevel normal
end
* xyz 0 1
C 3.9973667362 -1.0613995988 -2.6900567333
C 4.2736591183 -1.6205108108 -1.3094412965
O 3.0700930342 -1.7586195692 -0.5347287643
P 2.2524044862 -0.5021648666 -0.0019264583
S 3.3764888967 0.9936685227 0.5969366299
O 1.3206717726 -1.1841713154 1.0817825982
C 1.7818194605 -1.4539282276 2.4276553855
C 1.355458508 -0.3475405582 3.3721700918
S 0.8196435168 -0.0927665957 -1.495598086
C 0.2812559993 1.4950410437 -0.802212393
S -0.7296151455 1.3112146445 0.6842146245
P -2.4117989411 0.4408560402 -0.3011011613
S -2.8195646448 1.1485772788 -2.0759692016
O -3.573208012 0.5399417517 0.7818664321
C -4.4392809477 1.6854035099 0.891852594
C -3.6963499886 2.9324680609 1.3243025607
O -2.1357880383 -1.111205515 -0.3327668268
C -1.9568274758 -1.9097689506 0.8638554607
C -1.3117807845 -3.2160042289 0.4509326343
H 3.6476644681 -0.0325003971 -2.6118601487
H 4.91069135 -1.0790304795 -3.2759865528
H 3.2340257557 -1.6511786117 -3.1916048304
H 4.9641920329 -0.9700937961 -0.7628002057
H 4.6740956875 -2.6340109679 -1.3562457077
H 1.3192345487 -2.4066887695 2.6901845687
H 2.8694300138 -1.5638817618 2.4200616266
H 1.8297968001 0.5905365428 3.0921965059
H 0.2781453716 -0.2108485161 3.3358114445
H 1.6522532568 -0.6070957595 4.3832027634
H -0.3044646019 1.9891440385 -1.5775424417
H 1.1546337334 2.0847363033 -0.5225473858
H -4.9242328532 1.8430095244 -0.0761826556
H -5.1785469853 1.3785559414 1.6331345046
H -3.1191639195 2.7382085918 2.2248160633
H -3.0191100267 3.2554455476 0.5351864093
H -4.4119167923 3.7251167738 1.517884296
H -1.3243838318 -1.3537883952 1.5618039959
H -2.9404243465 -2.0659156349 1.3108199537
H -1.9191459346 -3.7064432113 -0.3043923888
H -0.3233186494 -3.0307097032 0.0375129149
H -1.2243638867 -3.8615505597 1.318992118
*
