  16
  -19.5050836000000       0.417282386132263      !md1
 C          0.7328011877       -1.1978351175        0.2318539296
 C         -0.7329913785       -1.1979278531       -0.2317662154
 N         -1.4477350185        0.0000064755        0.1920733942
 C         -0.7329989629        1.1981009864       -0.2313170870
 C          0.7331832586        1.1978151985        0.2314461050
 N          1.4477732542       -0.0002418853       -0.1923297532
 H          1.2578834212       -2.0715274802       -0.1572242646
 H          0.7706331024       -1.2285810347        1.3262665063
 H         -0.7709330953       -1.2292913181       -1.3260938326
 H         -1.2581564561       -2.0714174424        0.1579439341
 H         -1.5129529461       -0.0003138067        1.2067867999
 H         -0.7718040373        1.2303994359       -1.3255994348
 H         -1.2577191644        2.0714409669        0.1594342496
 H          1.2579577434        2.0710403874       -0.1592027249
 H          0.7719980325        1.2299203934        1.3257794380
 H          1.5126322934       -0.0002244661       -1.2071108398
  16
  -19.5050834600000       0.417220571462792      !mtd5
 C          0.7415931415       -1.1979188348       -0.2017875017
 C         -0.7418884773       -1.1978882333        0.2018048385
 N         -1.4387593168        0.0001160529       -0.2507433938
 C         -0.7415710680        1.1978816068        0.2019401793
 C          0.7418325360        1.1978789319       -0.2018400101
 N          1.4387601423       -0.0000619590        0.2506217761
 H          0.8240608989       -1.2295297246       -1.2936860841
 H          1.2502977537       -2.0714144499        0.2090758659
 H         -1.2507814162       -2.0713243941       -0.2089724334
 H         -0.8243899057       -1.2292760580        1.2936853640
 H         -1.4619413115        0.0001643431       -1.2673067324
 H         -1.2503434673        2.0715231640       -0.2085255035
 H         -0.8238728492        1.2290565273        1.2938462607
 H          0.8241055187        1.2292779944       -1.2937540894
 H          1.2507721102        2.0713611661        0.2087789872
 H          1.4624847960       -0.0000358207        1.2671481737
  16
  -19.5030876900000       5.048627471496392E-002 !mtd8
 C          0.7357419026       -1.1905213340       -0.2184681176
 C         -0.7357280772       -1.1971350603        0.2141553913
 N         -1.3771428927        0.0002557620       -0.3054607136
 C         -0.7353837348        1.1972465793        0.2147461905
 C          0.7356168842        1.1902498295       -0.2190306985
 N          1.4405787256       -0.0000210175        0.2298186614
 H          0.7831573217       -1.2062442576       -1.3097669661
 H          1.2482474090       -2.0707390613        0.1728260317
 H         -1.2434717419       -2.0717093884       -0.1955498902
 H         -0.7850738327       -1.2486482247        1.3195660468
 H         -2.3634535329        0.0004067439       -0.0675298359
 H         -1.2434742863        2.0721643478       -0.1936375053
 H         -0.7838449778        1.2475439508        1.3202035533
 H          0.7822387833        1.2048731327       -1.3103982142
 H          1.2485919754        2.0707697624        0.1709826467
 H          1.4725773798        0.0002272951        1.2469472676
  16
  -19.5030876800000       5.048574047459168E-002 !md4
 C          0.7355212955       -1.1972991355       -0.2141965811
 C         -0.7359237468       -1.1904011998        0.2185376393
 N         -1.4404930783        0.0002076328       -0.2299861695
 C         -0.7354486364        1.1904220807        0.2192438169
 C          0.7354835352        1.1970583410       -0.2148638319
 N          1.3771058155        0.0000570937        0.3055273699
 H          0.7849791022       -1.2485855749       -1.3196689422
 H          1.2431941974       -2.0719054023        0.1955018013
 H         -1.2485725072       -2.0705336648       -0.1726745965
 H         -0.7834548766       -1.2058758494        1.3098576727
 H         -1.4715859916        0.0008140128       -1.2472005083
 H         -1.2484357599        2.0710643407       -0.1706183521
 H         -0.7818232549        1.2048462362        1.3105863909
 H          0.7838453000        1.2471009209       -1.3204391100
 H          1.2437443752        2.0720275368        0.1932109667
 H          2.3633768471       -0.0000107588        0.0677276608
  16
  -19.5030874900000       5.047559098233221E-002 !gc
 C          0.7256533791       -1.1971544684        0.2457351994
 C         -0.7257846803       -1.1904554568       -0.2498459830
 N         -1.4491395329        0.0001529188        0.1679358036
 C         -0.7254230571        1.1904614012       -0.2501048763
 C          0.7257907383        1.1970647445        0.2460344728
 N          1.3888699787       -0.0000312997       -0.2465989159
 H          1.2504859494       -2.0719199713       -0.1413432984
 H          0.7276028582       -1.2479845524        1.3523290401
 H         -0.7262070263       -1.2059403604       -1.3422264829
 H         -1.2548398969       -2.0706607752        0.1189013468
 H         -1.5248172516        0.0002981846        1.1827715509
 H         -0.7253755532        1.2054016024       -1.3424853263
 H         -1.2545115591        2.0709429260        0.1179293324
 H          1.2509126688        2.0718993095       -0.1405139314
 H          0.7272932375        1.2474821738        1.3526456840
 H          2.3642005004       -0.0002102787        0.0326606551
  16
  -19.5011879300000       6.762450196311670E-003 !mtd5
 C          0.7276248318       -1.1920390323       -0.2319773722
 C         -0.7277546605       -1.1919785467        0.2318725283
 N         -1.3813254426        0.0001550780       -0.2842984875
 C         -0.7275009935        1.1920589973        0.2320716395
 C          0.7277472254        1.1919038328       -0.2321199043
 N          1.3812028991       -0.0000668618        0.2844276145
 H          0.7414397714       -1.2274010718       -1.3347967431
 H          1.2420619361       -2.0716936237        0.1585812935
 H         -1.2423126494       -2.0714684471       -0.1589081541
 H         -0.7415656091       -1.2275688141        1.3346739098
 H         -2.3591964543        0.0002073816       -0.0130053414
 H         -1.2420342192        2.0717510790       -0.1582646560
 H         -0.7409667629        1.2272457606        1.3348892686
 H          0.7412160078        1.2269322879       -1.3349548615
 H          1.2424412546        2.0715845191        0.1580352629
 H          2.3592325414       -0.0001625678        0.0137801291
  16
  -19.5011868800000       6.754940579648269E-003 !md6
 C          0.7167246327       -1.1921384568        0.2634477782
 C         -0.7169998410       -1.1919402749       -0.2636199646
 N         -1.3923541565        0.0003567530        0.2230749143
 C         -0.7163909945        1.1918765521       -0.2646259446
 C          0.7165110109        1.1918812942        0.2644888260
 N          1.3925395423        0.0001389711       -0.2228139073
 H          1.2476086029       -2.0714119038       -0.1050443138
 H          0.6822263642       -1.2284811861        1.3656820280
 H         -0.6824807819       -1.2278450095       -1.3659883814
 H         -1.2482317142       -2.0713411504        0.1043543298
 H         -2.3575714432        0.0003542508       -0.0898859090
 H         -0.6802194970        1.2259527667       -1.3669981958
 H         -1.2478848476        2.0720032744        0.1012386168
 H          1.2481729724        2.0718078336       -0.1013802716
 H          0.6801574544        1.2260441065        1.3667667149
 H          2.3574959968       -0.0001480713        0.0913141339
  16
  -19.4966808700000       5.738557219147310E-005 !mtd3
 C          0.7678957436       -1.1548793831       -0.2882094112
 C         -0.7777679767       -1.2303335620       -0.1499240869
 N         -1.3500639507        0.0157319050        0.3469816850
 C         -0.7481651862        1.1590881946       -0.3212854115
 C          0.7852516164        1.2319716314       -0.0820621097
 N          1.3248014823       -0.0211529441        0.4332900492
 H          1.0510661203       -1.0328833825       -1.3368486461
 H          1.2356740241       -2.0650893285        0.0895703588
 H         -1.2314884080       -1.4314985855       -1.1249358794
 H         -1.0703339407       -2.0289691527        0.5331624416
 H         -1.1834566469        0.0939987357        1.3468630699
 H         -0.9627620377        1.0516503691       -1.3876325399
 H         -1.2399086187        2.0641747151        0.0378995584
 H          1.3011369230        1.4468043358       -1.0226697282
 H          1.0323422506        2.0207611066        0.6298140515
 H          1.0944930031       -0.1132895379        1.4192166653
  16
  -19.4966808400000       5.738375046696030E-005 !mtd14
 C          0.7775817975       -1.2304771629        0.1501157285
 C         -0.7681264910       -1.1549644968        0.2878721882
 N         -1.3247300583       -0.0208181725       -0.4333454048
 C         -0.7851197761        1.2320655199        0.0824853620
 C          0.7483588492        1.1591511856        0.3209684793
 N          1.3499711555        0.0154460876       -0.3468710829
 H          1.0703976192       -2.0293414636       -0.5326898275
 H          1.2310677149       -1.4314047803        1.1253589070
 H         -1.2358177876       -2.0648412860       -0.0907213337
 H         -1.0516614019       -1.0336814493        1.3364394964
 H         -1.0932211569       -0.1124869376       -1.4190145748
 H         -1.0327937503        2.0211688768       -0.6289022741
 H         -1.3005590182        1.4464253452        1.0233765583
 H          1.2399155320        2.0640027111       -0.0390180466
 H          0.9634377550        1.0525256267        1.3872839350
 H          1.1838582963        0.0934683668       -1.3468520764
  16
  -19.4966808400000       5.738375046696030E-005 !md7
 C          0.7480744335       -1.1589805230        0.3214225754
 C         -0.7852640295       -1.2320595311        0.0820104194
 N         -1.3248750424        0.0210935283       -0.4332615434
 C         -0.7677520386        1.1548102221        0.2881803462
 C          0.7778269760        1.2304354080        0.1498290935
 N          1.3500525794       -0.0157315093       -0.3469862840
 H          1.2399775051       -2.0641413708       -0.0373455990
 H          0.9624803704       -1.0512157385        1.3877657266
 H         -1.0325338977       -2.0207181362       -0.6299112954
 H         -1.3011985040       -1.4468704272        1.0225637039
 H         -1.0944845406        0.1131869179       -1.4192035860
 H         -1.2355374743        2.0649738331       -0.0895941516
 H         -1.0509553786        1.0329206431        1.3367662937
 H          1.0704580874        2.0289269934       -0.5332586189
 H          1.2316449746        1.4316090568        1.1247752629
 H          1.1833802860       -0.0941359695       -1.3468695103
  16
  -19.4966807400000       5.737767846928987E-005 !mtd3
 C          0.7850513182       -1.2316890863       -0.0836711056
 C         -0.7487689165       -1.1593321536       -0.3204664507
 N         -1.3497445407       -0.0153493257        0.3475127545
 C         -0.7776628620        1.2298310101       -0.1515223868
 C          0.7684455096        1.1554959108       -0.2866199487
 N          1.3246201770        0.0206335091        0.4336891247
 H          1.2997393556       -1.4440668609       -1.0254926408
 H          1.0339159924       -2.0218530550        0.6261475104
 H         -0.9651453817       -1.0528832288       -1.3866298566
 H         -1.2399477933       -2.0641668390        0.0402318086
 H         -1.1821745776       -0.0925211422        1.3472925953
 H         -1.2296073049        1.4275614731       -1.1279773352
 H         -1.0724612560        2.0300985737        0.5285805112
 H          1.0540748369        1.0361164211       -1.3348701476
 H          1.2350040037        2.0648963070        0.0942683115
 H          1.0932229399        0.1112428911        1.4194824998
  16
  -19.4962871500000       3.783219437573424E-005 !mtd1
 C          0.7437245605       -1.1673510410        0.3230365737
 C         -0.7869787964       -1.2222035811        0.0904927860
 N         -1.3016112334        0.0172367721       -0.4700541647
 C         -0.7734630363        1.1546296663        0.2609945398
 C          0.7712996322        1.2283227873        0.1823892268
 N          1.2623918060       -0.0144777363       -0.3963755772
 H          1.2244840732       -2.0642778669       -0.0690858802
 H          0.9609470049       -1.1054691233        1.4043796521
 H         -1.0447653861       -2.0309172259       -0.5930302756
 H         -1.3026979826       -1.3972019651        1.0395300865
 H         -0.9848755323        0.0895505251       -1.4328805895
 H         -1.2214059053        2.0626456551       -0.1439843802
 H         -1.0952925528        1.0493594835        1.3008686426
 H          1.0872069320        2.0429751654       -0.4729591995
 H          1.1869686244        1.4141127222        1.1885647600
 H          2.2756952626       -0.0204423575       -0.3924139230
  16
  -19.4962871000000       3.783019273701790E-005 !mtd5
 C          0.7868645475       -1.2226838049       -0.0890202988
 C         -0.7434341739       -1.1668425941       -0.3238958338
 N         -1.2628310755       -0.0144586465        0.3958725212
 C         -0.7710962612        1.2291500715       -0.1806495545
 C          0.7732922654        1.1536171228       -0.2626165803
 N          1.3018368646        0.0173051127        0.4698361179
 H          1.3036380062       -1.3996600386       -1.0371197968
 H          1.0431390123       -2.0305200704        0.5961412951
 H         -0.9589426866       -1.1038937515       -1.4055085625
 H         -1.2251301175       -2.0640180508        0.0666904647
 H         -2.2761674719       -0.0205958507        0.3908279312
 H         -1.1887510247        1.4185192732       -1.1852529094
 H         -1.0845789431        2.0423239309        0.4778157285
 H          1.0925826323        1.0455211446       -1.3030116021
 H          1.2230230870        2.0622933955        0.1391115600
 H          0.9854043813        0.0910213967        1.4326285601
  16
  -19.4962870600000       3.782859150232398E-005 !mtd5
 C          0.7709380559       -1.2290407024        0.1808842354
 C         -0.7734688576       -1.1537552907        0.2624340921
 N         -1.3017495777       -0.0173321831       -0.4700031167
 C         -0.7868401397        1.2224353054        0.0894511415
 C          0.7435911530        1.1671451974        0.3234871451
 N          1.2628917518        0.0144559202       -0.3958091548
 H          1.0845922395       -2.0422516901       -0.4773957198
 H          1.1883608907       -1.4182808878        1.1855571266
 H         -1.2230763138       -2.0623628222       -0.1394913711
 H         -1.0930697207       -1.0457335007        1.3027199325
 H         -0.9850892463       -0.0907892833       -1.4326969889
 H         -1.0438757390        2.0306662523       -0.5949470161
 H         -1.3032169521        1.3984274795        1.0379414138
 H          1.2248241118        2.0640224863       -0.0682321219
 H          0.9599045280        1.1051629839        1.4049708803
 H          2.2762012651        0.0202601304       -0.3901946132
  16
  -19.4962870200000       3.782699033540530E-005 !mtd2
 C          0.7734766412       -1.1543055137       -0.2615010965
 C         -0.7711395397       -1.2287613417       -0.1819525658
 N         -1.2626075423        0.0144182112        0.3958714773
 C         -0.7437212814        1.1677976444       -0.3225255506
 C          0.7872380501        1.2219751246       -0.0907795310
 N          1.3014384751       -0.0172649648        0.4703782547
 H          1.0945606092       -1.0476645603       -1.3015100079
 H          1.2220253079       -2.0627315464        0.1422047735
 H         -1.1877024395       -1.4163858529       -1.1874042666
 H         -1.0860551174       -2.0426311136        0.4749962583
 H         -2.2759013761        0.0202332423        0.3918943597
 H         -0.9615090534        1.1076080496       -1.4038440102
 H         -1.2239156544        2.0643587631        0.0713010887
 H          1.3024533136        1.3951939133       -1.0403450659
 H          1.0461490866        2.0313249386        0.5914895172
 H          0.9838311687       -0.0896581562        1.4328902898
  16
  -19.4962867600000       3.781658440218786E-005 !gc
 C          0.7819216352       -1.2300015872       -0.1112880862
 C         -0.7530607469       -1.1582414740       -0.3028543563
 N         -1.3325970949       -0.0118853408        0.3732106022
 C         -0.7774364585        1.2206117389       -0.1632437054
 C          0.7663117127        1.1640672849       -0.2805780432
 N          1.2297526908        0.0193647203        0.4879734728
 H          1.2699068306       -1.4263888964       -1.0823175529
 H          1.0493460965       -2.0372931038        0.5741081949
 H         -0.9984655836       -1.0665134269       -1.3646420626
 H         -1.2296279521       -2.0612854239        0.0801817392
 H         -1.0875105391       -0.0721994591        1.3574816354
 H         -1.2211619554        1.3827506618       -1.1501792350
 H         -1.0854574562        2.0379023949        0.4886073483
 H          1.0634177269        1.0904896039       -1.3420202033
 H          1.2167773956        2.0655230869        0.1364771601
 H          2.2406362431        0.0255463894        0.5587380543
  16
  -19.4962866700000       3.781298301536223E-005 !mtd1
 C          0.7655637347       -1.1631032786       -0.2829316370
 C         -0.7777606347       -1.2211485015       -0.1610885644
 N         -1.3328983580        0.0124379094        0.3730405290
 C         -0.7522375273        1.1571793168       -0.3047280800
 C          0.7819503137        1.2307400279       -0.1084303503
 N          1.2303182880       -0.0201397379        0.4873377615
 H          1.0594237794       -1.0864706702       -1.3450508920
 H          1.2178489676       -2.0653654034        0.1303466415
 H         -1.2238456145       -1.3870126378       -1.1463578528
 H         -1.0828770270       -2.0367138613        0.4942511462
 H         -1.0886184182        0.0745060636        1.3573934671
 H         -0.9940999370        1.0619327869       -1.3670238079
 H         -1.2304941245        2.0611790952        0.0739005160
 H          1.2722662438        1.4321820591       -1.0772317384
 H          1.0459299051        2.0356509316        0.5811601189
 H          2.2412783642       -0.0265625539        0.5568840005
  16
  -19.4962859800000       3.778538377497055E-005 !gc
 C          0.7513307080       -1.1556406891        0.3074765644
 C         -0.7817826352       -1.2318967412        0.1046147775
 N         -1.2310439658        0.0209477228       -0.4866015792
 C         -0.7647310149        1.1615474889        0.2862541419
 C          0.7778406733        1.2221902601        0.1576639221
 N          1.3333487658       -0.0129581206       -0.3726134109
 H          1.2322718934       -2.0608189742       -0.0649200134
 H          0.9882822180       -1.0553685970        1.3703990538
 H         -1.0407951633       -2.0338000014       -0.5904140612
 H         -1.2752984016       -1.4398642001        1.0703394322
 H         -2.2421173400        0.0275656448       -0.5544951643
 H         -1.2199055054        2.0650561358       -0.1210164811
 H         -1.0536818776        1.0800033269        1.3493612912
 H          1.0784376136        2.0351347431       -0.5029878058
 H          1.2275149749        1.3940980915        1.1402979670
 H          1.0902358778       -0.0777567286       -1.3570686069
  16
  -19.4962858900000       3.778178535947429E-005 !mtd4
 C          0.7775856728       -1.2224216329        0.1573732516
 C         -0.7648867783       -1.1613524756        0.2865270665
 N         -1.2311575714       -0.0208423939       -0.4864426463
 C         -0.7815362447        1.2321165292        0.1042792358
 C          0.7514149078        1.1554608057        0.3075678944
 N          1.3335412718        0.0128191583       -0.3725060759
 H          1.0777818361       -2.0351611575       -0.5037122964
 H          1.2273589245       -1.3948807416        1.1398436135
 H         -1.2204715346       -2.0648231718       -0.1203933341
 H         -1.0535606581       -1.0793985279        1.3496537008
 H         -2.2422290455       -0.0272958217       -0.5541061952
 H         -1.0400525048        2.0336778191       -0.5912983304
 H         -1.2753462425        1.4408136142        1.0696953411
 H          1.2327395857        2.0606608985       -0.0642995213
 H          0.9879136839        1.0548130090        1.3705449173
 H          1.0906691895        0.0777697938       -1.3570108739
