! pbe def2-sv(p) def2/J RI DEFGRID1 loosescf d4 GCP(DFT/SV(P)) printgap
%output
    printlevel normal
end
* xyz 0 1
C 1.4248543854 1.9419921356 2.5171725486
C 2.8974193257 1.6183831401 2.3665302763
O 3.2429850189 1.2825747338 1.0095674472
P 2.8608091976 -0.1093582304 0.3603385818
S 2.8966386633 -1.6587505972 1.5687377935
O 3.9738072755 -0.0730516039 -0.7662662138
C 4.4069978651 -1.2575782694 -1.4573779566
C 3.3181482595 -1.8589403867 -2.3242334263
S 1.0395598504 0.2199096358 -0.7068424066
C -0.0278795856 -1.0077096427 0.1070271311
S -1.3843436752 -0.2528445127 1.018548268
P -2.6402440002 0.0861554445 -0.6761595466
S -2.5918055812 -1.3554546547 -2.0025365604
O -2.2280945911 1.4275207505 -1.3935651015
C -2.4166471957 2.7752774921 -0.8988763767
C -1.3528784253 3.1624459607 0.108341366
O -4.0323641374 0.4837636899 -0.0242150821
C -4.6903747367 -0.2407787778 1.0325063652
C -4.9174481683 -1.6976322719 0.6884290219
H 1.137476119 2.7176309677 1.8126291679
H 0.8205183171 1.0534837109 2.3349724607
H 1.2366450497 2.2881165374 3.5283405267
H 3.1795697273 0.7831581522 3.0159786959
H 3.5225921426 2.4846320859 2.5875555829
H 5.2510542174 -0.913872028 -2.0570106708
H 4.7515992842 -1.9856464791 -0.7158808041
H 2.5212086757 -2.2639848041 -1.7010161838
H 2.898315364 -1.1045930721 -2.9855181754
H 3.737578789 -2.6640464355 -2.9192349602
H 0.5706045006 -1.584000193 0.8169197052
H -0.4544850308 -1.6496353216 -0.6664392963
H -2.3474958326 3.3834165537 -1.8024120195
H -3.4181174043 2.8554529993 -0.4731033713
H -1.4367802359 4.2239445491 0.3198958384
H -1.4773588385 2.6053365167 1.0338762068
H -0.3668136278 2.9552589157 -0.3020140517
H -4.0860450316 -0.1468442515 1.9387288408
H -5.635181934 0.2912601456 1.1572532757
H -5.4573557069 -1.7864343771 -0.2514057266
H -3.9638118349 -2.2134015394 0.5852084931
H -5.4911487261 -2.1701505786 1.4791163225
*
