! pbe def2-sv(p) def2/J RI DEFGRID1 loosescf d4 GCP(DFT/SV(P)) printgap
%output
    printlevel normal
end
* xyz 0 1
C 1.6547471116 -2.6968412704 1.5528153419
C 1.8529027826 -1.2621858449 1.9976595701
O 2.906011874 -0.5991372209 1.2785262373
P 2.839277362 -0.1843276206 -0.2581938577
S 3.0011273242 -1.5971119016 -1.6056536916
O 4.0702593146 0.7883881221 -0.3690938836
C 4.5156506728 1.721164773 0.6457139994
C 3.5151564778 2.8306744957 0.889895314
S 1.0647158137 1.0126318567 -0.4327099016
C 0.0707702465 -0.0953647628 -1.4577885849
S -1.0443483948 -1.1357505936 -0.493142306
P -2.5270561482 0.3712287379 -0.1749113799
S -2.8432153613 1.5773228733 -1.6835818684
O -2.0574997858 1.2153475227 1.0694655136
C -1.8101114074 0.6479975206 2.3795082543
C -2.9942724004 0.8868175911 3.2939436915
O -3.746986129 -0.4549788032 0.4169823215
C -4.3058404539 -1.6450951642 -0.1706134514
C -4.7168705808 -1.4486317448 -1.6144495674
H 0.935781082 -3.1789889687 2.2070440385
H 1.2787030502 -2.7324669464 0.5317230659
H 2.5972608735 -3.2365806797 1.5924199096
H 2.1797470842 -1.2104468073 3.0377950041
H 0.9303312003 -0.6871721585 1.871409672
H 4.7157923531 1.161784245 1.5610577249
H 5.4490216967 2.1076204593 0.2336353008
H 2.596365972 2.429352259 1.3140230961
H 3.9413478384 3.5474031486 1.5850769666
H 3.2737313541 3.3364007813 -0.0417498003
H 0.7393345049 -0.7579341142 -2.0129006908
H -0.5252388984 0.5270236076 -2.1274324576
H -1.6041080515 -0.4209683112 2.2724452939
H -0.9201959129 1.1679782388 2.7396672364
H -2.7632483186 0.5047465519 4.2833220464
H -3.2044284186 1.9507234879 3.3589049386
H -3.8750927447 0.3805458369 2.9082812536
H -3.5674334678 -2.4470071184 -0.0847215727
H -5.168044432 -1.8635151702 0.4618832164
H -5.3960476164 -0.6040717913 -1.7049180798
H -3.8417805557 -1.2511511179 -2.2323341004
H -5.2084054725 -2.3461572344 -1.975817022
*
