! pbe def2-sv(p) def2/J RI DEFGRID1 loosescf d4 GCP(DFT/SV(P)) printgap
%output
    printlevel normal
end
* xyz 0 1
C 4.3225637927 -0.7916022221 -1.8475552441
C 4.5638838934 0.1741006639 -0.7063960491
O 3.3376863609 0.7143562102 -0.1504951094
P 2.2292419749 -0.1067451879 0.6184395556
S 1.3878381013 0.9598226724 2.0293027412
O 3.0166572465 -1.3808693603 1.1499210227
C 2.4994646723 -2.1906422778 2.2199828206
C 1.2380139633 -2.9244017054 1.8137441237
S 0.9907900828 -0.9277158994 -0.9289034205
C 0.6509258695 0.586249685 -1.8549680637
S -0.3557498821 1.7916824741 -0.9371555565
P -1.9478026691 0.4763203619 -0.4565378284
S -2.4558039624 -0.7255717469 -1.9232265652
O -3.0800042688 1.4595984943 0.0636736684
C -3.9452148876 2.1735486224 -0.8454085026
C -5.2767576913 1.4607801049 -0.9787157006
O -1.4447669668 -0.1891816759 0.8873137452
C -2.2998701778 -0.538384192 1.9986045452
C -3.2496752741 -1.6599275055 1.6350212118
H 5.2820105282 -1.1002014137 -2.2513139771
H 3.7886849876 -1.6705464778 -1.4940021591
H 3.7421196012 -0.3216398256 -2.6374578626
H 5.09617667 1.0668075491 -1.0388964094
H 5.1167198943 -0.3100881942 0.1001045635
H 3.3143686754 -2.8798638148 2.4449710388
H 2.307193171 -1.5421312059 3.0808336632
H 0.4445904229 -2.2053863904 1.609170047
H 1.4104650295 -3.5125794398 0.9157720702
H 0.9232299526 -3.5782967194 2.6206180382
H 0.1114153972 0.2708456798 -2.7478099104
H 1.5777806896 1.096567621 -2.1071449582
H -4.0616281455 3.1632662351 -0.4002792655
H -3.4531204376 2.2651129742 -1.8172972577
H -5.9341048975 2.0498490643 -1.6098823975
H -5.1323621672 0.4829317447 -1.4334189475
H -5.7343225282 1.3344452475 -0.0014607662
H -1.5941484793 -0.8319522032 2.7781951362
H -2.8401497299 0.3560737928 2.313981262
H -3.8346304673 -1.9353631592 2.5067175826
H -3.9204878442 -1.3335821275 0.8409695411
H -2.6949711168 -2.5260639206 1.2817070457
*
