! pbe def2-sv(p) def2/J RI DEFGRID1 loosescf d4 GCP(DFT/SV(P)) printgap
%output
    printlevel normal
end
* xyz 0 1
C 2.9613729491 0.0004673355 -2.0864982604
C 2.5591647558 1.2471723793 -1.3273622962
O 1.6170149567 0.9857975417 -0.2588608252
P 1.8640419711 0.0457147888 0.9871637533
S 0.7847563705 0.5454073254 2.542720651
O 3.4350004586 0.1605807132 1.1912544979
C 4.0830984605 -0.202819319 2.4233094539
C 4.0216059231 -1.692861405 2.6881121836
S 1.5644532346 -1.9620443903 0.3349070994
C -0.2174577378 -1.8790089804 0.0908725437
S -0.6498732721 -1.128825421 -1.5310814974
P -2.0561777947 0.2974299829 -0.9301564874
S -2.8856361737 1.3660631708 -2.3449750158
O -1.2019634718 1.0714122096 0.1599154874
C -1.7122621683 2.2741982786 0.7766237763
C -1.0749191364 3.4941765779 0.1449795891
O -3.1072802141 -0.4617963172 0.009446818
C -4.3259299764 -1.0160619949 -0.5133176531
C -4.0709497885 -2.2656893844 -1.331947558
H 3.5210528069 -0.6736694954 -1.4418079037
H 2.0826762547 -0.5175485956 -2.4654160617
H 3.5887801368 0.2903275236 -2.9238304481
H 2.0174198332 1.9458421337 -1.9680651204
H 3.4321010497 1.7391694095 -0.8939456083
H 5.1095281366 0.140282158 2.2856242922
H 3.61073272 0.3529223042 3.2392909089
H 4.6383949651 -1.9274525775 3.5497076725
H 2.9963390069 -1.9935018157 2.8964437267
H 4.3804233118 -2.2477366805 1.8251560433
H -0.6700559005 -1.2895015267 0.8877092024
H -0.577210235 -2.9040441591 0.0906692599
H -2.8007886097 2.2961120076 0.6745209948
H -1.4432384496 2.1827650225 1.8312448295
H -1.4153188719 4.3849800393 0.6628543198
H 0.0070493651 3.42155875 0.2226661379
H -1.3514584759 3.5605518714 -0.9054245328
H -4.9233896544 -1.2269269123 0.3746651044
H -4.8191294106 -0.2517448252 -1.1227646423
H -3.5350718779 -3.0046615985 -0.7419993777
H -5.0203697996 -2.6827865367 -1.6518462711
H -3.4798211539 -2.0178273368 -2.2132406692
*
