! r2scan-3c def2/J RI DEFGRID2 scfconv6 printgap
%output
    printlevel normal
end
%cpcm
    smd true
    smdsolvent "water"
end
* xyz 0 1
C 2.4907082742 -1.5223193662 3.0294624472
C 1.3217213391 -1.6260643949 2.0730035105
O 1.1641272005 -0.4215346512 1.2985346479
P 2.1863400411 -0.0035009965 0.1609359052
S 3.1623006532 -1.453073504 -0.7320782735
O 3.0876767638 1.0490141959 0.9358910854
C 4.3523697392 1.5088500312 0.426414786
C 4.1905217058 2.3679484754 -0.8108651596
S 0.9130167406 1.1898401803 -1.0365857898
C 0.2986809901 -0.1552162122 -2.0855021209
S -0.5658464862 -1.4501393686 -1.1517599313
P -2.1773720586 -0.2552281182 -0.4694073707
S -2.8109614057 1.1567758248 -1.6730846405
O -1.8077503201 0.2260754196 1.0014360156
C -1.4705013932 1.5714911151 1.3827904323
C -2.3086539649 1.9719304636 2.5810390312
O -3.1528475077 -1.4695459786 -0.1930045771
C -4.5890717292 -1.3249236119 -0.1892489765
C -5.0716764673 -0.4462514102 0.9457524224
H 2.3879968847 -0.639831343 3.6553471379
H 2.5254518559 -2.4093768536 3.6540796943
H 3.4204258444 -1.4489385033 2.4661277764
H 0.369666768 -1.72789699 2.5962932272
H 1.4530494912 -2.4668626823 1.383710653
H 4.7789622868 2.0729866591 1.2567723179
H 4.9747296961 0.6351142022 0.2084665807
H 5.1526759788 2.788701011 -1.0848343686
H 3.8209731713 1.7638926431 -1.6385117525
H 3.4834091764 3.1721597533 -0.6236163464
H 1.1352290644 -0.6436938929 -2.5835953978
H -0.3818233414 0.3004153821 -2.8039041453
H -0.405067809 1.577129453 1.6267251354
H -1.6480916172 2.2382447553 0.5317853584
H -1.9894563575 2.9520822511 2.9202103717
H -3.3609211733 2.0141139306 2.3134289646
H -2.176819978 1.253029092 3.3844281731
H -4.8961345452 -0.9107419486 -1.1544990985
H -4.9510557682 -2.3494516933 -0.0929542627
H -6.1567181386 -0.4609525278 0.976171142
H -4.6768689714 -0.8041950455 1.893077456
H -4.737028174 0.5776071582 0.7833945344
*
