! pbe def2-sv(p) def2/J RI DEFGRID1 loosescf d4 GCP(DFT/SV(P)) printgap
%output
    printlevel normal
end
* xyz 0 1
C 3.1328967347 -0.7025416848 -3.1313528647
C 3.852385077 -1.2889985171 -1.9351245377
O 3.5266532897 -0.6295585848 -0.6986016833
P 2.0753972901 -0.1815632199 -0.2243581348
S 1.4821966032 1.5351194637 -0.9782056591
O 2.2370295797 -0.2051228287 1.3527265514
C 2.6279829755 0.9626112581 2.0964585412
C 4.0819296603 1.3050080398 1.8561363491
S 0.9659265903 -1.9665511989 -0.5080729104
C -0.2479455644 -1.9681838757 0.8474451532
S -1.9493306542 -1.6763514656 0.3064934295
P -1.9774476612 0.4463253188 0.4247588803
S -0.8646995644 1.1974710856 1.846774262
O -3.5317540373 0.751686669 0.5508787546
C -4.2630976259 0.4428099113 1.7555400233
C -5.5718147896 1.2046794894 1.7121753011
O -1.6531358838 1.0261388648 -0.9965949672
C -2.3148001259 0.5850675673 -2.2130706312
C -1.3453996387 -0.2061083491 -3.0674390755
H 3.4678668486 -1.2015579221 -4.0349096271
H 2.0577556835 -0.8467684205 -3.0236268761
H 3.3324076539 0.3637647308 -3.2108811804
H 4.9335563631 -1.1635747801 -2.0181153282
H 3.6088810923 -2.3491159973 -1.8215528843
H 1.9749901313 1.7949637875 1.8123410082
H 2.4317403666 0.6926160493 3.1350906092
H 4.2241070035 1.5752085085 0.8102387371
H 4.3619702075 2.1456700662 2.4829232432
H 4.7111450225 0.4497367845 2.0872009216
H 0.0276114383 -1.2112287261 1.5836393049
H -0.2290693736 -2.966878155 1.2751312809
H -4.428320191 -0.6374406359 1.7843826226
H -3.6544395664 0.7369990641 2.616906542
H -5.379978394 2.2732207965 1.6685887015
H -6.1422289116 0.9136349321 0.8350502022
H -6.144053578 0.9791319065 2.6059164011
H -3.1951539102 -0.0050714707 -1.9484691
H -2.6209102781 1.5067560468 -2.7093387185
H -1.8024379795 -0.4103914845 -4.0300973748
H -0.4366263735 0.3730025804 -3.2162213159
H -1.0872475328 -1.1490157735 -2.5891449248
*
