! r2scan-3c def2/J RI DEFGRID2 scfconv6 printgap
%output
    printlevel normal
end
* xyz 0 1
C 2.4050075642 1.0985583642 -8.56063e-05
C 1.1476116398 0.285981997 0.0001016786
C 1.191965161 -1.1057304838 0.0001368856
C 1.25096e-05 -1.8092693654 -2.1761e-05
C -1.1919558118 -1.1057419352 -0.0001302202
C -1.1476277437 0.2859626886 -4.0344e-05
N -8.4495e-06 0.9543133024 3.68801e-05
C -2.4050094684 1.0985541276 4.7954e-05
H 2.9978512333 0.8703632325 -0.8835434931
H 2.1577032302 2.1551449276 0.0041200587
H 3.0025339182 0.8640697632 0.8785083381
H 2.141779075 -1.6176094246 0.0002192114
H 1.31964e-05 -2.8897653111 -3.32518e-05
H -2.1417539948 -1.6176460993 -0.0002126381
H -3.0006678621 0.8666598285 -0.8804946921
H -2.9997142671 0.8677905554 0.8815358105
H -2.1576729947 2.1551285352 -0.0007141908
*
