! pbe def2-sv(p) def2/J RI DEFGRID1 loosescf d4 GCP(DFT/SV(P)) printgap
%output
    printlevel normal
end
* xyz 0 1
C 4.6251423615 0.786454803 -1.6295953906
C 4.7717700008 0.0346587561 -0.3227994609
O 3.5769012615 -0.6828967189 0.0373355045
P 2.2217898616 0.0558966845 0.4195256405
S 2.4179391496 1.6829359195 1.4805356822
O 1.4237594533 -1.0727586974 1.183409248
C 1.3247064709 -2.4358756983 0.7022624984
C 2.3305137387 -3.3229161375 1.404267959
S 1.2305812653 0.261191616 -1.4614421692
C 0.0797627007 1.5685593393 -0.9470073919
S -0.924145249 1.1475365849 0.4987314586
P -2.3281218697 -0.1348533625 -0.4854264908
S -1.6369973423 -1.8232208078 -1.1936312125
O -2.974714335 0.74854074 -1.6232107903
C -4.0720134425 1.6818975258 -1.457572983
C -3.7184026551 2.8566334596 -0.5701954679
O -3.5023962077 -0.2868463683 0.5738825612
C -3.4930626366 -1.325935231 1.5679224687
C -2.4562097998 -1.0720501452 2.643331635
H 3.9187565686 1.6064212158 -1.510251769
H 5.5892916659 1.1925850608 -1.9180750247
H 4.2636406441 0.1225963361 -2.4112013522
H 5.0156112828 0.7238541251 0.4914234517
H 5.5315557682 -0.7452382171 -0.3912067074
H 0.2994522178 -2.7396626331 0.9244711417
H 1.4655927333 -2.4455935146 -0.382158377
H 3.3426795071 -3.0167945867 1.1541797318
H 2.1968822069 -3.2541512776 2.4803583796
H 2.1759083527 -4.3490957552 1.0862113527
H -0.5609193358 1.7661859243 -1.8039550332
H 0.6506831276 2.4509905729 -0.6607197798
H -4.2811739674 1.9984433975 -2.4807444816
H -4.9257546312 1.1343863827 -1.0551765206
H -3.5254394612 2.5203787802 0.4460238311
H -2.8360454147 3.3705370282 -0.9434644411
H -4.5533748663 3.5504841961 -0.5593320083
H -4.5049460783 -1.3094459607 1.9750913786
H -3.3067467918 -2.28179302 1.0673457382
H -2.6005819582 -0.0905364471 3.0877703144
H -2.5422240557 -1.8320399687 3.4132693029
H -1.4531041717 -1.1125779394 2.2190529928
*
