! pbe def2-sv(p) def2/J RI DEFGRID1 loosescf d4 GCP(DFT/SV(P)) printgap
%output
    printlevel normal
end
* xyz 0 1
C 4.7613342484 -0.9618346914 -2.949456759
C 4.2687960721 -0.4813932292 -1.596446014
O 2.9634827142 -1.0401773802 -1.3523246427
C 2.6661240387 -1.4820028437 -0.1505537101
O 3.420961224 -1.4865255883 0.7963786334
C 1.2346258259 -1.9900349617 -0.0929562319
C 0.2774805487 -0.8159959356 -0.3128006595
H 0.4329916734 -0.3769533526 -1.3010457516
C 0.5117618426 0.2376805358 0.7543248811
O -0.2105555069 0.3769188438 1.7188924223
O 1.5993169674 0.9237426078 0.5093508679
C 1.999082949 1.9256400436 1.4684963189
C 2.6617526637 1.2948172963 2.6820174233
S -1.4464258311 -1.3908274402 -0.1749971503
P -2.3795235106 0.509735705 -0.0411156972
S -1.3861236915 2.0106703713 -0.8116136806
O -3.779222015 0.2219303657 -0.7659359728
C -3.8518512931 -0.0367948159 -2.1728220553
O -2.8937191896 0.7868386602 1.4230284993
C -3.6071722415 -0.1987965351 2.1962117152
H 5.7242948238 -0.5086929579 -3.1602112582
H 4.8687050721 -2.0428506561 -2.9508749056
H 4.0545222019 -0.6772916148 -3.7230814068
H 4.1551059196 0.6059611129 -1.5793270563
H 4.9362542401 -0.7884235896 -0.7861196834
H 1.0588082185 -2.4455721715 0.8820814209
H 1.0766435376 -2.7272974409 -0.8801298729
H 2.6915626288 2.5573920944 0.9127854174
H 1.111171404 2.4974298865 1.7544606411
H 3.0894173944 2.0750290567 3.3023294247
H 1.9303655854 0.7387529224 3.2639191313
H 3.4458132179 0.6108710415 2.3647013152
H -4.9075609115 0.0187320053 -2.4252115293
H -3.455142775 -1.02889055 -2.3869909916
H -3.2883303065 0.719208268 -2.7216930123
H -4.5318662299 -0.4692598421 1.6897737191
H -3.8089458242 0.2842003366 3.148547217
H -2.9796787598 -1.0784480916 2.3390642871
*
