! pbe def2-sv(p) def2/J RI DEFGRID1 loosescf d4 GCP(DFT/SV(P)) printgap
%output
    printlevel normal
end
* xyz 0 1
C 1.0858733928 -1.6281321055 -2.2302026993
C 2.4602246513 -1.0239669457 -2.0226335871
O 2.4510537862 0.0207611809 -1.0221929993
P 2.5183113709 -0.159044755 0.5451445052
S 3.006173409 1.5575532164 1.3514678393
O 3.5280489554 -1.3787321405 0.6748179883
C 3.6979900612 -2.1959483972 1.8495303186
C 4.030588223 -1.3856477617 3.0842766996
S 0.6848781707 -0.9751826484 1.2645169517
C -0.1813657991 0.598283666 1.4324088217
S -0.4376668233 1.4505823777 -0.1566718259
P -2.2280438324 0.4944865758 -0.7388691272
S -2.9425236201 1.0385410296 -2.4811108331
O -3.2613335185 0.6684387393 0.471172207
C -4.2034600816 1.7506511038 0.5074967818
C -3.5269827727 3.0747544281 0.8005525607
O -1.7768782163 -1.0078217117 -0.5313964647
C -2.6878349941 -2.1306728916 -0.5619225351
C -2.8989098218 -2.6313283587 -1.9765484049
H 0.7631711641 -2.1700542497 -1.3440351068
H 0.3586873153 -0.8465608756 -2.4464518923
H 1.1263109489 -2.3131938343 -3.0716715647
H 2.8043020436 -0.508635561 -2.9211453003
H 3.1864617147 -1.7839303251 -1.7293421184
H 2.7805380249 -2.7713603166 1.9995665122
H 4.5172898065 -2.8643157914 1.5785375102
H 4.2306937644 -2.0574711846 3.9126711484
H 4.9037198536 -0.7626041404 2.9056863687
H 3.1958027271 -0.7369889837 3.3448108114
H 0.4268574486 1.2741030104 2.0342007134
H -1.1406123785 0.391022264 1.8994264283
H -4.7217449774 1.7914706978 -0.4560333494
H -4.9029061097 1.4703716641 1.2963456938
H -4.2787988984 3.8530067217 0.8826992708
H -2.9630902781 3.0208673624 1.7284091756
H -2.8446156175 3.3290362252 -0.0105421106
H -2.1948806347 -2.8812501569 0.0590461177
H -3.6329105864 -1.8345751893 -0.1013634766
H -3.5457143778 -3.502666937 -1.9541936947
H -3.3639234872 -1.859356585 -2.5863112944
H -1.9470110518 -2.9010348345 -2.4254538771
*
