! pbe def2-sv(p) def2/J RI DEFGRID1 loosescf d4 GCP(DFT/SV(P)) printgap
%output
    printlevel normal
end
* xyz 0 1
C 4.7485102058 2.2946209789 -1.0719905445
C 3.3386046086 1.8217121953 -0.7816574741
O 3.4313618087 0.6329759121 0.0285270949
P 2.1646309782 0.0553551494 0.7913362199
S 1.2060313244 1.3517923308 1.8927498938
O 2.7446694561 -1.1368660495 1.6372644039
C 3.6540418914 -2.1366451555 1.1051280966
C 5.091533557 -1.75528653 1.3904794487
S 1.0965067197 -0.8755931033 -0.822616825
C -0.0364210776 -1.8829946601 0.1708467204
S -1.3476297912 -0.9355420743 0.9862046818
P -2.2369184728 -0.1662855331 -0.7968668048
S -2.182786394 -1.3649408065 -2.3375940745
O -1.5575078323 1.2223764611 -1.0897857805
C -1.5842135648 2.3413781545 -0.1685860391
C -2.7140331756 3.2888907431 -0.510024448
O -3.6849364357 0.2430792544 -0.2912288312
C -4.6655862944 -0.7655830681 0.0325209066
C -6.0107434954 -0.080860142 0.1616045451
H 5.2996827067 1.5207234656 -1.5982731397
H 4.7047157174 3.1857963959 -1.6892323747
H 5.2619721426 2.527018548 -0.1433259093
H 2.8025527817 1.5687293383 -1.7009674397
H 2.7672898177 2.5744142269 -0.2282557769
H 3.37858514 -3.057331533 1.6229801931
H 3.4770938032 -2.2434446081 0.0316984199
H 5.348063544 -0.8364684945 0.8706025973
H 5.2316976941 -1.6056015603 2.4574877076
H 5.7437354171 -2.5541079118 1.0513406024
H 0.5090330195 -2.3956324349 0.9597295835
H -0.4888410612 -2.587557007 -0.5272282396
H -1.6696087488 1.9640405653 0.8544728237
H -0.6094777728 2.8186743133 -0.2881910657
H -2.662496699 4.1488896537 0.1502146513
H -2.6222973386 3.6189401041 -1.5411551404
H -3.6725886951 2.7933255025 -0.3826615047
H -4.6685771841 -1.5140737364 -0.766498535
H -4.3675247941 -1.2432357583 0.9699528976
H -6.7629508245 -0.8215988381 0.4118689594
H -5.9723653225 0.6706923 0.9449230059
H -6.2776125468 0.3980832357 -0.7762246969
*
