! r2scan-3c def2/J RI DEFGRID2 scfconv6 printgap
%output
    printlevel normal
end
%cpcm
    smd true
    smdsolvent "water"
end
* xyz 0 1
C -1.2368590347 0.9631399201 -1.256333745
C -1.0134016806 0.1128076001 -6.7981e-06
C -1.9497417686 -1.0945299593 4.08554e-05
C -1.2363056271 0.9628095106 1.256673061
C 0.4294406097 -0.3691010984 -0.0002108017
O 0.7797535094 -1.5307893792 -0.0001047382
O 1.2936166959 0.6400655577 -0.0001886046
C 2.6841570529 0.3130062017 7.68027e-05
H -1.0628450609 0.3711368607 -2.1521964523
H -2.2614836636 1.3241268092 -1.2726424723
H -0.5617906704 1.814438911 -1.2627601863
H -2.9836516704 -0.762630715 -0.0018766021
H -1.7755584186 -1.709074572 0.8799043927
H -1.772945926 -1.7110919863 -0.8778948137
H -1.0596726446 0.3712005426 2.1522781716
H -0.5627873362 1.8153286125 1.2618868441
H -2.2615553878 1.3218894188 1.274725794
H 2.9315301282 -0.2661310383 -0.8904569034
H 2.9287678313 -0.2767913963 0.8843614979
H 3.2087315168 1.2632004555 0.0064746638
*
