! pbe def2-sv(p) def2/J RI DEFGRID1 loosescf d4 GCP(DFT/SV(P)) printgap
%output
    printlevel normal
end
* xyz 0 1
C 2.844897863 -2.7034930927 -2.4658598474
C 3.1587782129 -2.5729642326 -0.9890597659
O 3.5051540389 -1.2075260385 -0.6484619906
P 2.4753697207 -0.1542726398 -0.0622676366
S 3.4052154838 1.4875741499 0.443236439
O 1.6822628099 -0.9142940283 1.1048845819
C 2.1757881209 -0.926411936 2.4639034791
C 1.4756537393 0.1257299014 3.2998077999
S 0.9273057814 0.0188768066 -1.4876957235
C 0.2057212944 1.5327985511 -0.8023327829
S -0.7444973287 1.250507012 0.7064021852
P -2.4348302251 0.3865463724 -0.2686713427
S -3.056781546 1.3185323602 -1.8704269558
O -3.4914712707 0.2017933832 0.90566663
C -4.4334620139 1.2260125747 1.2748776992
C -3.7548464546 2.4631761695 1.8254549231
O -2.0308430634 -1.1006711529 -0.5902750984
C -1.5520751618 -2.048901258 0.3971687436
C -1.0052799515 -3.2427773695 -0.3573038837
H 3.680268691 -2.3399035168 -3.0576953657
H 2.667940565 -3.7486589118 -2.7000231457
H 1.9598658157 -2.1250232049 -2.7247932619
H 4.0478628627 -3.1475988476 -0.7237981826
H 2.3139867535 -2.8897810968 -0.3727353853
H 1.962953472 -1.9327998814 2.82863428
H 3.2567465225 -0.7577198272 2.4547103396
H 1.6990409427 1.1186194437 2.9154942761
H 0.399759218 -0.0207852167 3.2709834329
H 1.8236578078 0.0557910002 4.3252396465
H -0.4536974061 1.9425982417 -1.5686236804
H 1.0087786862 2.2276348814 -0.5539268668
H -5.0320513971 1.4761306721 0.3938145145
H -5.0601227559 0.7417670465 2.0252118623
H -3.0737190956 2.1977733401 2.6300686314
H -3.1912381838 2.9603840047 1.0373011067
H -4.5086659762 3.1474260623 2.2015894091
H -0.7751551192 -1.5652478424 0.9966486306
H -2.3905151567 -2.3209044247 1.0408731871
H -1.7866470413 -3.689016379 -0.9654287708
H -0.1966280325 -2.9266196607 -1.011408541
H -0.6358893166 -3.9767163233 0.351663714
*
