! r2scan-3c def2/J RI DEFGRID2 scfconv6 printgap
%output
    printlevel normal
end
%cpcm
    smd true
    smdsolvent "water"
end
* xyz 0 1
C 3.0490832528 -0.1129287545 -2.8691102339
C 1.7914664067 -0.8056484933 -2.3890506895
O 1.8930711235 -1.2289284187 -1.0155447287
P 2.1297143072 -0.24297761 0.1996576673
S 1.296061233 1.5353730956 0.0852876469
O 3.7147695508 -0.2191688635 0.2925423291
C 4.4350621877 0.7512896435 1.071453252
C 4.2227482242 0.5615665467 2.5595124975
S 1.5376277355 -1.5015556182 1.7766942931
C -0.2329367159 -1.1264794713 1.7819025167
S -1.0794169649 -1.6246170592 0.2404443641
P -2.062798699 0.1793453085 -0.2502910247
S -2.2230023103 1.5478984437 1.1481773803
O -3.4542817437 -0.3122935737 -0.8463245254
C -4.6285639184 -0.4781341367 -0.0347170312
C -4.483815206 -1.6067385662 0.9658905696
O -1.3001272258 0.5659206763 -1.5867616173
C -1.3650220579 1.8945788064 -2.1459379111
C -2.7681373134 2.2760838263 -2.5651742278
H 3.9145312553 -0.7475840178 -2.696779114
H 2.9609684799 0.1008184087 -3.9297980017
H 3.1854474902 0.8235004775 -2.3285024044
H 1.6065854059 -1.7354836234 -2.9291457733
H 0.9211163755 -0.148831369 -2.4811481016
H 5.4764546378 0.5913919118 0.7890749036
H 4.1134231328 1.7510642091 0.7618509307
H 3.1915124811 0.7943916958 2.8221250083
H 4.4310493911 -0.4670977164 2.84252855
H 4.8830792022 1.2284867903 3.1045900953
H -0.3914253057 -0.0550326012 1.9335259531
H -0.6494326556 -1.7027685839 2.6040265735
H -4.8260712776 0.466623195 0.4820486606
H -5.4195046153 -0.6796133938 -0.7583368162
H -3.738876065 -1.3431921056 1.7156927832
H -5.4360307454 -1.7722896833 1.4595137636
H -4.1712786462 -2.5193955375 0.4648056302
H -0.9694718543 2.596601393 -1.4039813708
H -0.6865741036 1.8520645633 -2.9996937713
H -2.7390042634 3.2327041016 -3.0774405772
H -3.1800713038 1.519200138 -3.2277355661
H -3.4074386475 2.3650380526 -1.6876251665
*
