! pbe def2-sv(p) def2/J RI DEFGRID1 loosescf d4 GCP(DFT/SV(P)) printgap
%output
    printlevel normal
end
* xyz 0 1
C 2.414881937 -2.0939689349 -1.999164632
C 2.4625008342 -0.5930662004 -2.1995000196
O 1.7175965755 0.1284907425 -1.1880121469
P 2.0581467373 0.2619515302 0.3426378407
S 1.0617910101 1.7703145094 1.1072537431
O 3.6418031227 0.3367576398 0.3216652835
C 4.4972921004 0.0799590768 1.4533859543
C 4.1856743715 0.9691209416 2.6380834933
S 1.6430797095 -1.5769940209 1.3174239555
C -0.1376037353 -1.3224465218 1.4544447665
S -1.0170154774 -1.5453520739 -0.1295092229
P -1.8435310208 0.3894525832 -0.5369579098
S -0.9578054263 1.476067593 -1.909265776
O -2.0653449899 1.106231682 0.8469382318
C -3.266961106 1.012193523 1.6589993233
C -3.4076838111 -0.332744079 2.3401052131
O -3.3265987602 -0.0060719094 -0.9594716059
C -3.5998773895 -0.5784059142 -2.251988884
C -5.0873926911 -0.4548082268 -2.5124812201
H 2.8585123769 -2.5745330086 -2.8655534084
H 2.9716443819 -2.3828633123 -1.110382857
H 1.3848176868 -2.4291795034 -1.8960244282
H 1.9622214248 -0.2937430626 -3.1227232274
H 3.4889225097 -0.2222126937 -2.1948917754
H 4.3956161915 -0.974433237 1.7241230431
H 5.4986088876 0.2700119583 1.0629494876
H 4.2274107018 2.0164743036 2.3482662283
H 3.1852268335 0.7587278613 3.0128984069
H 4.9076720656 0.7839491011 3.4267243203
H -0.3190962871 -0.3108577013 1.8223553218
H -0.505133738 -2.0833407057 2.1372451267
H -3.1349086479 1.8196985955 2.3807745307
H -4.1256701424 1.2195115629 1.0192861238
H -2.5681248426 -0.5166684634 3.0048753173
H -4.3243836291 -0.3313712878 2.9219339912
H -3.4621499422 -1.1277273832 1.599490505
H -3.0116651771 -0.0383781666 -3.0018557736
H -3.2814856595 -1.6246398931 -2.2328468755
H -5.6458051506 -0.9726177166 -1.7382448524
H -5.3788323776 0.5917571926 -2.52033001
H -5.3152843044 -0.8961163329 -3.4769773794
*
