! r2scan-3c def2/J RI DEFGRID2 scfconv6 printgap
%output
    printlevel normal
end
* xyz 0 1
C 1.5558782242 2.5239911112 1.2256794218
C 2.8318637721 1.8005931769 1.6059013821
O 3.2347380163 0.8602694927 0.5961933638
P 2.48872258 -0.5272566308 0.3839317188
S 1.926773377 -1.4263920343 2.0379210147
O 3.5197290813 -1.3362893442 -0.5057692267
C 4.5615262936 -2.1534063996 0.0679477907
C 5.6273961098 -1.3185598436 0.7462301999
S 1.0513680282 -0.139524452 -1.1180844782
C -0.1180470461 -1.4631658 -0.687979102
S -1.2587265109 -1.0017600842 0.6450612387
P -2.3810958495 0.3782562889 -0.493127706
S -2.7236531227 -0.0856527294 -2.3712052306
O -1.5279528993 1.6884022994 -0.2406893626
C -1.5810247026 2.8221505474 -1.1309938335
C -2.932813312 3.5033158889 -1.0954407681
O -3.6752740557 0.6627894644 0.3826940696
C -4.8837395602 -0.1053666661 0.2499069814
C -4.7109613153 -1.5301975268 0.7353495204
H 0.7161579606 1.8293956146 1.2094182482
H 1.3515057263 3.3020877349 1.954281667
H 1.6607627125 2.9681216115 0.2386506826
H 2.7048287462 1.2629633105 2.5516470852
H 3.6753090561 2.4886653732 1.6789236847
H 4.1038485878 -2.8474351249 0.7802805247
H 4.9594979355 -2.7034184007 -0.7857971442
H 6.0003441817 -0.5600074045 0.0631431827
H 5.2111418862 -0.8280986095 1.6248553157
H 6.4452424075 -1.9619711237 1.0553256386
H 0.4247785362 -2.3410357747 -0.345907389
H -0.6913673392 -1.6750669157 -1.5904813122
H -0.7880066529 3.4765361748 -0.7675705824
H -1.3439264966 2.4771489902 -2.1424370539
H -3.1971407971 3.7588334488 -0.0727142986
H -2.8979091062 4.4052262878 -1.6984235905
H -3.6936398332 2.8367221922 -1.4999995969
H -5.6089953832 0.4411819658 0.8542016723
H -5.1876858112 -0.0925735631 -0.8018396796
H -4.2994922039 -1.5392390464 1.7416885186
H -5.6739698043 -2.0306687298 0.7338015642
H -4.0314498825 -2.0690091118 0.0761842799
*
