! pbe def2-sv(p) def2/J RI DEFGRID1 loosescf d4 GCP(DFT/SV(P)) printgap
%output
    printlevel normal
end
* xyz 0 1
C 3.823726757 -2.8772517557 0.6829863312
C 2.3187867598 -2.805224092 0.4832306321
O 1.9879011048 -2.0099551852 -0.6714283708
C 1.9586775061 -0.7021720641 -0.5558236825
O 2.1591732428 -0.0813974474 0.4688810607
C 1.6436294098 -0.0209319139 -1.8756265917
C 0.4429378694 0.9173613086 -1.7178213781
H 0.4101942985 1.6232556051 -2.5505479482
C 0.521903638 1.6846947462 -0.4122571471
O -0.2858960507 1.5251030412 0.4875172972
O 1.496600035 2.5404842429 -0.3991152061
C 1.7417112805 3.2729501755 0.8221212999
C 2.7709323109 4.34344116 0.522504464
S -1.1488652798 0.025604041 -1.7807740408
P -1.7829351711 -0.3293678837 0.195047781
S -0.7239340416 -1.136132113 1.6500753186
O -2.7574004321 0.8895489954 0.5253348438
C -3.6221643686 0.8313182834 1.6685155688
O -2.9389201794 -1.3928167797 -0.2116720634
C -2.6656971441 -2.7730448673 -0.4485233427
H 4.2187416767 -1.889504956 0.9092976541
H 4.0398171153 -3.5401501435 1.5140477857
H 4.3022779753 -3.257213498 -0.2154717422
H 1.8226087592 -2.3735733596 1.3581134023
H 1.8969332922 -3.7854990856 0.2621721507
H 1.4402365079 -0.7680521744 -2.6406864054
H 2.5160352653 0.5739687174 -2.1534758069
H 0.7932247912 3.6940724769 1.1690415437
H 2.0971893036 2.5530745549 1.5659639881
H 2.9775508898 4.9007953255 1.4298781282
H 3.6887087172 3.8858965172 0.1669950068
H 2.3952930254 5.0217217789 -0.2375659767
H -4.0198580192 1.8368189771 1.7802092023
H -3.0554046375 0.5430396159 2.5559276214
H -4.4221699452 0.1129957531 1.4906249229
H -1.9849186076 -3.1529243984 0.3166276354
H -2.2247851607 -2.9005554635 -1.4370094021
H -3.6254597812 -3.280140496 -0.3886755498
*
