! pbe def2-sv(p) def2/J RI DEFGRID1 loosescf d4 GCP(DFT/SV(P)) printgap
%output
    printlevel normal
end
* xyz 0 1
C 2.9629522141 2.0766416977 0.8451452069
C 1.6295813881 1.6940437637 1.4525000074
O 1.468252866 0.2693394031 1.6218366243
P 1.6949808334 -0.8545471466 0.5239566798
S 0.8808514086 -2.5447095042 1.0723192575
O 3.2767364701 -0.9658334114 0.2942135024
C 4.0916131213 -1.9072207674 1.009894458
C 4.2731387089 -1.506807666 2.46062327
S 1.227224057 -0.0760613122 -1.3893543178
C -0.0658582921 -1.2441871342 -1.8893930206
S -1.6945411288 -0.497907264 -2.2346794788
P -1.9936396398 0.6903321702 -0.5026298843
S -3.8465569681 1.230570886 -0.1814350453
O -0.9455494625 1.8786070987 -0.6461114671
C -1.0536777501 2.8340102485 -1.723478973
C -1.7313468305 4.1032753689 -1.246668377
O -1.2560437804 -0.0776661362 0.680890508
C -2.0335368638 -0.7616257702 1.6835510675
C -2.6907479792 -2.0127176273 1.137099305
H 3.0584888451 1.6568416542 -0.1556613017
H 3.0231685729 3.1588769561 0.7817183901
H 3.7812950109 1.7093190157 1.4591313457
H 0.8010462173 2.053836703 0.838343668
H 1.5242287227 2.079582531 2.4683551453
H 3.626908364 -2.8962106345 0.9421621505
H 5.0379815538 -1.9065717284 0.4674898162
H 4.7314764399 -0.5238844498 2.5304859864
H 3.3040731294 -1.4812243172 2.9590058621
H 4.9069965556 -2.2336480849 2.9588502253
H -0.1686789785 -2.0036716195 -1.1101370358
H 0.2291975936 -1.6937036065 -2.8344179449
H -0.0238832707 3.0190247921 -2.0367788525
H -1.6083481318 2.3813184016 -2.5524291884
H -2.7491182196 3.8880971151 -0.9281486963
H -1.1857217272 4.5289333468 -0.4094037651
H -1.7586908817 4.8200476687 -2.0609033876
H -1.309814995 -0.998540647 2.465006385
H -2.7871211496 -0.0676066244 2.0667781144
H -1.9395459027 -2.7187470645 0.7908689938
H -3.2756449894 -2.4789236286 1.9232075949
H -3.3519722857 -1.7530044709 0.3103837454
*
