! pbe def2-sv(p) def2/J RI DEFGRID1 loosescf d4 GCP(DFT/SV(P)) printgap
%output
    printlevel normal
end
* xyz 0 1
C 3.5553705703 -3.9822683392 -0.922368673
C 4.162808616 -2.6690002538 -1.3890503821
O 3.1635666866 -1.8366838067 -2.0124611817
C 2.4260111539 -1.0637816304 -1.246396564
O 2.5402074935 -0.9697596012 -0.0415606249
C 1.4148588587 -0.271914915 -2.0494969787
C 0.4097806691 0.3666489694 -1.1010592255
H -0.2433204303 1.0625253696 -1.6373148118
C 1.1505608686 1.1595443927 -0.0327880121
O 2.0712252695 1.8935896647 -0.3144918322
O 0.652082442 0.998273572 1.173658046
C 1.2813844578 1.7191777931 2.2527802364
C 0.8013544756 3.1597048702 2.3151728874
S -0.6471427334 -0.9180042128 -0.3585801336
P -2.2859683589 0.3231343354 0.2126839657
S -2.1086009996 2.2603503283 0.0038626559
O -3.5108103207 -0.196224446 -0.6415589054
C -3.9150224302 -1.5797541563 -0.6473758669
O -2.6955076913 -0.2106800217 1.6608952568
C -1.886911897 -0.0285562274 2.8261723737
H 2.8055270447 -3.7947289022 -0.1569922894
H 3.0878021198 -4.4956294423 -1.7577622105
H 4.3359004782 -4.6103780372 -0.5060735529
H 4.9082850644 -2.8273411913 -2.1682010454
H 4.598384196 -2.12099016 -0.5487874899
H 0.9275312747 -0.9230186891 -2.774013697
H 1.9547156695 0.5132210968 -2.583895588
H 1.0039730118 1.1630164244 3.1482166388
H 2.3630505708 1.6761514688 2.0980698607
H 1.2058912982 3.6339369686 3.2027884776
H 1.1352499915 3.7045049629 1.4352350583
H -0.2849538375 3.1978855106 2.3466705291
H -3.0428264046 -2.221458572 -0.7760873811
H -4.5942947726 -1.6759847089 -1.4903638295
H -4.4198352212 -1.8160077374 0.2868046004
H -1.7055431758 1.0327082664 2.9951625038
H -0.9394948008 -0.5538193095 2.7077256487
H -2.462503515 -0.4527333397 3.6455154217
*
