! pbe def2-sv(p) def2/J RI DEFGRID1 loosescf d4 GCP(DFT/SV(P)) printgap
%output
    printlevel normal
end
* xyz 0 1
C 3.9920472123 -0.6573787506 -2.6915088014
C 4.2890552524 0.3916088918 -1.639577866
O 3.7709110224 0.022870474 -0.3502858141
P 2.213889935 -0.0725850892 -0.0526786643
S 1.1643672991 1.3576917456 -0.8999129183
O 2.1643431996 -0.1357270137 1.5272725652
C 2.0974115602 1.0404571826 2.358061534
C 3.3527176022 1.8793663715 2.2556412222
S 1.7917510328 -2.0979598909 -0.4646006618
C 0.0440108959 -2.165819269 -0.0020948104
S -1.052381409 -1.393936278 -1.2467178465
P -2.2188839716 -0.2215680295 0.059581582
S -1.3538591749 0.451675787 1.6929760767
O -3.3866354288 -1.2517070818 0.3444663365
C -4.2774745708 -1.1222645066 1.4713941925
C -5.1799223454 0.085940497 1.3393009248
O -2.9417174295 0.8158062664 -0.8941668405
C -2.3801172606 2.0459547639 -1.3918795189
C -2.6753303222 3.1949024421 -0.4473471195
H 4.3325714047 -1.6342185827 -2.3573611854
H 2.918873989 -0.7063201289 -2.8750054629
H 4.4953922873 -0.3938929439 -3.6161781983
H 3.854289498 1.3552496175 -1.9250599634
H 5.3606598421 0.5021597121 -1.4691388456
H 1.2130943797 1.6186249855 2.0712130316
H 1.9533319238 0.6385809031 3.3618783285
H 3.4346854975 2.3039183325 1.2557343862
H 3.3028500573 2.6871854998 2.9789405715
H 4.2291070327 1.2672091146 2.4519954666
H -0.09891621 -1.6562459367 0.9540901806
H -0.2042612013 -3.2212941881 0.0673598765
H -4.8417775106 -2.0554733777 1.4644273643
H -3.6745587905 -1.0558862355 2.3829506543
H -5.9012055324 0.0887985482 2.1505175097
H -4.5845134798 0.9966664853 1.3906045308
H -5.7025227363 0.0611078977 0.3867412303
H -1.3034591384 1.9306558517 -1.5395472456
H -2.8654167121 2.1897399625 -2.3587987218
H -2.1952415573 3.0235762061 0.5140380691
H -2.2834496248 4.112606498 -0.8734925812
H -3.7470211189 3.2938662184 -0.2968449627
*
