! pbe def2-sv(p) def2/J RI DEFGRID1 loosescf d4 GCP(DFT/SV(P)) printgap
%output
    printlevel normal
end
* xyz 0 1
C 5.0154672544 -0.1239223923 -0.9193567562
C 4.4660162948 -1.4363848131 -1.45444457
O 3.0282562371 -1.3866025233 -1.5278982915
C 2.3250313333 -1.9202639763 -0.541963571
O 2.7974578688 -2.5297402795 0.3895077845
C 0.8325922245 -1.7558816113 -0.7715704715
C 0.497241388 -0.3155184256 -1.1396347628
H 1.0093775188 -0.0533583159 -2.0729654467
C 0.9996662572 0.6609470011 -0.0918212075
O 2.0135875847 0.4623294501 0.5361238458
O 0.27944414 1.7645522497 -0.0386732
C 0.7586928473 2.8521373273 0.7814117013
C 0.3762254247 2.6885061232 2.2415212886
S -1.2651091932 -0.0827453473 -1.5251609699
P -2.0957232528 0.1711686866 0.4140092239
S -1.1160846359 -0.5797425616 1.9382104068
O -2.4568010291 1.6956521086 0.6071714196
C -3.2263528849 2.4294345088 -0.3673131954
O -3.5612569379 -0.4405755075 0.2075616938
C -3.7654937659 -1.8471404767 0.0387739979
H 4.76770115 0.6917599557 -1.5927563335
H 4.5797000254 0.083765502 0.0559316495
H 6.0934718062 -0.195809437 -0.8215813325
H 4.7500902541 -2.2700284133 -0.8062424227
H 4.7946568255 -1.6201603392 -2.478256317
H 0.3220660498 -2.0589769968 0.1445509972
H 0.5366695066 -2.4160328117 -1.5883603956
H 1.8462076139 2.8970569675 0.675022735
H 0.2911110149 3.7343483383 0.34408797
H 0.841275528 1.7958788873 2.6559957868
H 0.7167949338 3.5552717386 2.7979960651
H -0.7021931793 2.5936632702 2.3437183629
H -2.7358798232 2.3808805227 -1.3393327303
H -3.2524603299 3.4511405312 0.0020896461
H -4.2305346637 2.0159664258 -0.433283153
H -3.4320715791 -2.153391081 -0.9524644292
H -4.8356475225 -2.0031587565 0.1483782464
H -3.2209846157 -2.4012282193 0.805023326
*
