! pbe def2-sv(p) def2/J RI DEFGRID1 loosescf d4 GCP(DFT/SV(P)) printgap
%output
    printlevel normal
end
* xyz 0 1
C 3.604600326 -2.3218922292 1.5897406792
C 2.8598145429 -2.8774723443 0.3870108877
O 2.7779094768 -1.8908823411 -0.6621410271
C 1.7926987501 -1.0308239708 -0.6417577829
O 0.917447571 -1.0183591119 0.2105425806
C 1.8333778987 -0.060848607 -1.7923486704
C 0.7158439597 0.9601186016 -1.6678183156
H 0.6973999981 1.6293777491 -2.5316015809
C 0.8114965571 1.8027694395 -0.4056678234
O 1.7096612033 1.6963461608 0.3998522011
O -0.1781214661 2.6640921694 -0.3376016396
C -0.2315598462 3.5730630822 0.7776248796
C 0.5258709877 4.8524848988 0.4610846256
S -0.9462519966 0.1848789761 -1.751605211
P -1.4572581801 -0.5573305549 0.1834088658
S -1.4882973491 -2.4916761479 0.5513104967
O -0.9688291853 0.4513828615 1.313565892
C -0.2337211542 0.0541422706 2.4711792894
O -2.97693029 -0.0115983402 0.1992873007
C -3.9690972745 -0.5593574237 -0.6668121745
H 3.0669514227 -1.4705920423 2.0025730584
H 3.681051367 -3.091356669 2.3505805861
H 4.6010023743 -2.0019403794 1.2981938497
H 1.8458839471 -3.1852618275 0.6602080736
H 3.3978130552 -3.7093676825 -0.0669130874
H 1.7344537523 -0.6169450178 -2.7258857838
H 2.8058345299 0.4352222718 -1.7843533629
H -1.2956073812 3.7600590269 0.9247085067
H 0.1873375473 3.0744855719 1.6557493559
H 0.4086752154 5.5482855448 1.28518646
H 1.5837249376 4.6386199262 0.326699357
H 0.1349278881 5.3026418597 -0.447007142
H -0.7224926641 0.5201921125 3.3243076262
H 0.7934851554 0.4070182002 2.3697639886
H -0.2418092006 -1.0322045235 2.5751695448
H -4.9150343556 -0.1423053533 -0.3308123224
H -3.9804940056 -1.6481878929 -0.5815752135
H -3.7679340841 -0.2726334665 -1.7002555326
*
