! pbe def2-sv(p) def2/J RI DEFGRID1 loosescf d4 GCP(DFT/SV(P)) printgap
%output
    printlevel normal
end
* xyz 0 1
C 1.8184044572 -3.2805451902 -0.0156972921
C 2.9165209252 -2.2487535941 -0.2190594352
O 2.3584261155 -1.0120819384 -0.7006567793
C 2.1989239279 -0.8579245706 -2.0082303287
O 2.5966935321 -1.6402684373 -2.8387507064
C 1.4772977661 0.4343572093 -2.3368311728
C 0.3942032132 0.7488485583 -1.3104079556
H -0.1353821385 1.6658320371 -1.5862495673
C 0.9565672027 0.9346097333 0.0838464384
O 0.4622346796 0.4016198408 1.0599524686
O 1.9692386847 1.7512356752 0.1066049307
C 2.528510811 2.1107501655 1.3891418647
C 1.7708104604 3.2856347345 1.9853234127
S -0.833419716 -0.6106110732 -1.2444341482
P -1.9115456307 -0.0787626595 0.5043825288
S -2.1232098918 1.8256409499 0.9569904193
O -3.3244182362 -0.7298153601 0.0974312247
C -4.1268589651 -0.1717510719 -0.9440323226
O -1.6599483275 -1.1359763397 1.661124178
C -1.1209116104 -0.8393322053 2.9508955639
H 1.0428292568 -2.8802222495 0.6343621321
H 1.3680400853 -3.5401332679 -0.9713711592
H 2.2378726069 -4.1737115116 0.4349456826
H 3.6555098168 -2.6020899489 -0.9434026651
H 3.3994657639 -1.9880907121 0.723181633
H 1.0458206647 0.3359855683 -3.3323359611
H 2.2071478361 1.247119849 -2.341451091
H 2.4820959781 1.239916943 2.0474151323
H 3.5636159759 2.3711375241 1.1694529724
H 0.7238953129 3.0250361513 2.1322672162
H 2.2062948536 3.5466589843 2.9439493786
H 1.8233947647 4.143652361 1.3213179324
H -5.0953312857 -0.6582331286 -0.8604920536
H -3.6791618131 -0.3764250121 -1.9171459651
H -4.2303697233 0.9060910191 -0.8011125351
H -1.6957312907 -1.4310520726 3.660212494
H -1.2223912825 0.2242299566 3.1724915418
H -0.0691278565 -1.1183241876 2.9735930254
*
