! pbe def2-sv(p) def2/J RI DEFGRID1 loosescf d4 GCP(DFT/SV(P)) printgap
%output
    printlevel normal
end
* xyz 0 1
C 4.5372705234 0.7499488976 -2.0861324757
C 4.5717525911 0.822382773 -0.5733039637
O 3.666395167 -0.1181176933 0.0273593011
P 2.0875478206 0.034204951 -0.0816675484
S 1.4804631526 1.8945826142 0.0878873885
O 1.56028867 -0.974699355 1.0202674159
C 1.3699660756 -0.5855104568 2.3941625362
C 2.6777806558 -0.2529077008 3.0777794241
S 1.6554371678 -1.0866368665 -1.8134771583
C -0.1109503916 -1.4534674506 -1.6261268392
S -1.1859540663 0.0102247605 -1.6198116983
P -2.0474963416 -0.1756375276 0.3295784856
S -1.6811154962 -1.8327261327 1.2987042445
O -3.5886675831 0.1386183206 0.0866363235
C -4.5459233748 -0.8797242263 -0.2555571685
C -4.254783208 -1.5327033377 -1.5909942518
O -1.5792666376 1.0998816763 1.1290247883
C -1.8785981289 2.4500133766 0.6917571642
C -3.0682868 3.0037114758 1.4461116457
H 4.7101540692 -0.2701271967 -2.4197069973
H 3.5626241677 1.0749095601 -2.4500729433
H 5.302246142 1.4010767517 -2.496756064
H 4.3055774844 1.827914693 -0.2303334279
H 5.5471415628 0.5390993953 -0.1758513444
H 0.6847035145 0.2693903645 2.4199062102
H 0.8806968495 -1.4523942393 2.8421736372
H 2.4951881899 -0.0854804175 4.1346281161
H 3.3814987054 -1.0719828202 2.9549544537
H 3.1049084135 0.6501743692 2.6435439919
H -0.2769441012 -2.016277318 -0.7033176412
H -0.36198805 -2.0465271497 -2.5024868331
H -4.5499624745 -1.626736597 0.5439349376
H -5.4970019425 -0.3455217313 -0.2690913579
H -5.0783935001 -2.1893307578 -1.8525022099
H -4.133742387 -0.7790383944 -2.3650232289
H -3.3422590025 -2.1236095901 -1.5249902714
H -0.9676132279 3.0153309483 0.900584641
H -2.0542846925 2.4417963873 -0.3873599383
H -3.962769516 2.431989472 1.2142611879
H -2.8846605918 2.9542393593 2.5158544497
H -3.2167749594 4.0387205986 1.154990965
*
