! r2scan-3c def2/J RI DEFGRID2 scfconv6 printgap
%output
    printlevel normal
end
* xyz 0 1
C 5.3161838682 -0.9174088528 -1.9105094656
C 4.5328580656 -1.4855548628 -0.7432832456
O 3.1294273094 -1.3784589362 -1.0484649127
C 2.2817054622 -1.9994840203 -0.2473845061
O 2.6140579078 -2.7075337618 0.6761047091
C 0.8401248798 -1.7825524044 -0.6714440281
C 0.5831432358 -0.3101943379 -0.9705037503
H 1.201363084 0.0034005006 -1.8190394056
C 0.9758399376 0.5667150467 0.205022648
O 1.8981285967 0.2862823119 0.9368623824
O 0.2615332519 1.6702955222 0.2673062767
C 0.5615605559 2.6505620314 1.2825332314
C 0.6217459593 4.0219200428 0.6362017188
S -1.1243950153 -0.00261143 -1.5172244463
P -2.1352716424 0.192726384 0.3425029429
S -1.3176669716 -0.6177181777 1.9336227082
O -2.5007128395 1.7119558017 0.5598633093
C -3.1593812801 2.4977281574 -0.4556095775
O -3.5788028776 -0.3946973665 -0.0242012741
C -3.7777640697 -1.7910968878 -0.2686466786
H 6.3773897311 -0.9960975194 -1.6994864179
H 5.0882667464 -1.4710703491 -2.8163778351
H 5.0576849883 0.1264466798 -2.0599399999
H 4.7154772091 -0.9309345269 0.1828636452
H 4.7678174028 -2.5396323539 -0.5648179815
H 0.2020700869 -2.1376212703 0.1403762693
H 0.6496306956 -2.3743404423 -1.5680444796
H -0.2429451196 2.5882047256 2.0210844177
H 1.5073649834 2.3726372959 1.7559740503
H 1.4231820348 4.0599991961 -0.0964429834
H -0.3204303371 4.2416867996 0.1432674746
H 0.8060878379 4.7652732609 1.4045708033
H -4.1376908609 2.0755874636 -0.6753717618
H -2.5494182081 2.5209766792 -1.358420874
H -3.256424105 3.4911454892 -0.0255348656
H -3.3205766514 -2.3813737803 0.5271038463
H -3.3468441281 -2.0635482503 -1.2318283729
H -4.8550089289 -1.9363551272 -0.2755877717
*
