! r2scan-3c def2/J RI DEFGRID2 scfconv6 printgap
%output
    printlevel normal
end
%cpcm
    smd true
    smdsolvent "water"
end
* xyz 0 1
C 1.2782494674 -0.2530097025 0.0153137852
C -0.010584726 0.5597490526 -0.0333541233
O -1.173129153 -0.2401981941 0.057714085
H 2.1321425056 0.417452669 0.0252835349
H 1.2982271426 -0.8643207786 0.9140465235
H 1.3549787687 -0.9032280125 -0.8532560901
H -0.0425937345 1.1622312874 -0.9518624537
H -0.0641505208 1.2366831362 0.8226444891
H -1.1627408296 -0.891207008 -0.6580016598
*
