! r2scan-3c def2/J RI DEFGRID2 scfconv6 printgap
%output
    printlevel normal
end
* xyz 0 1
C -0.7338716693 -1.1930298368 0.2326289854
C 0.7239358564 -1.1639785463 -0.228068819
O 1.3827358934 0.0014230049 0.2342832373
C 0.721549288 1.1654696111 -0.2280868026
C -0.7363045769 1.1915084081 0.232648529
N -1.3949029947 -0.0014301777 -0.2775372956
H -0.7529885649 -1.240588284 1.3358178398
H -1.22897413 -2.0758831919 -0.172260431
H 1.2827667422 -2.0061501311 0.180616966
H 0.7569976617 -1.1906775102 -1.325867105
H 1.2786533646 2.0087796175 0.1805951097
H 0.7545719204 1.1922431735 -1.3258835469
H -0.7555290196 1.2390015857 1.3358426136
H -1.2332040566 2.0733539789 -0.1722367519
H -2.3726663568 -0.002431027 -0.0074270418
*
