! pbe def2-sv(p) def2/J RI DEFGRID1 loosescf d4 GCP(DFT/SV(P)) printgap
%output
    printlevel normal
end
* xyz 0 1
C -2.5873180681 0.5776040429 -0.0007506354
C -1.2286467239 -0.0621186701 -2.10182e-05
C -1.1360466907 -1.4487554992 8.41341e-05
C 0.0922835874 -2.082644531 0.00045182
C 1.2508843794 -1.3330883304 0.000201682
C 1.1739979607 0.0541596618 -7.13713e-05
C -0.0634584254 0.7070796388 0.0003661019
C -0.0912908175 2.2127241386 0.0009473085
O 2.3577069679 0.7359417014 -0.000758546
H -2.7217406661 1.2002771229 -0.8836374841
H -3.3595700106 -0.1866736539 -0.0023936395
H -2.7237657617 1.1983136971 0.8832297934
H -2.0402584466 -2.03930209 -8.77381e-05
H 0.1489897401 -3.1604983714 0.0007152122
H 2.2258877766 -1.7947502381 0.0001101836
H 0.4007473407 2.6050975598 -0.8896827347
H -1.1081919756 2.5857722861 0.0087511796
H 0.4139809485 2.6045660021 0.8843302434
H 2.1975218672 1.6910119132 -0.0036896804
*
