! pbe def2-sv(p) def2/J RI DEFGRID1 loosescf d4 GCP(DFT/SV(P)) printgap
%output
    printlevel normal
end
* xyz 0 1
C 4.7006794882 -1.0153897436 -1.3279128299
C 4.3872748607 -0.6286411066 0.1019724801
O 3.445996786 0.4570902187 0.1977417644
P 1.9878900064 0.4847319394 -0.4396115413
S 1.8413360058 0.7598993116 -2.3700451837
O 1.3426477095 1.6828196714 0.3532379885
C 1.3804390021 1.7947279091 1.796135637
C 2.4254055532 2.8056476411 2.2199916384
S 1.1653233531 -1.331749243 0.308685944
C 0.0066062827 -1.7506259801 -1.0284714979
S -1.6850366228 -1.9926011272 -0.4456733972
P -2.0954824099 0.0156342141 0.1228442289
S -1.5023815042 1.4150268285 -1.1118072089
O -1.4771603645 0.1727466916 1.5673958307
C -1.9062569453 -0.6752057865 2.6716081843
C -0.7196797055 -0.9379251557 3.5748856338
O -3.6521393468 -0.0060801575 0.4461809546
C -4.6628480666 0.2310922517 -0.5498192101
C -4.6884668175 -0.846124621 -1.6144280711
H 3.812523842 -1.4131475485 -1.8161343807
H 5.0362882021 -0.1476972961 -1.890879132
H 5.4787736126 -1.7718154425 -1.3332400119
H 5.272185701 -0.2429586893 0.6114187998
H 3.9827215945 -1.4813237593 0.6541557258
H 0.3731529947 2.1137592322 2.0733503541
H 1.5836016922 0.8086300859 2.2231799817
H 2.3992117944 2.9130710686 3.299804793
H 3.413618664 2.4737028354 1.9125362716
H 2.2202516727 3.7669309975 1.7566462094
H 0.313570726 -2.7007839216 -1.458333947
H 0.0407295248 -0.950758732 -1.774382849
H -2.7006500742 -0.137795807 3.1915445172
H -2.3073125743 -1.6066218334 2.2621912093
H -0.3214067917 -0.0019170609 3.9555181861
H -1.0448128893 -1.5536298323 4.4073277466
H 0.0609443906 -1.4614445952 3.028427018
H -5.5897517741 0.2526660907 0.0251121049
H -4.4789309882 1.2115541486 -0.9995661859
H -4.7505112445 -1.8306289514 -1.1575501602
H -5.5479195288 -0.6915088816 -2.2588381535
H -3.7836851014 -0.7935814254 -2.2185018737
*
