! pbe def2-sv(p) def2/J RI DEFGRID1 loosescf d4 GCP(DFT/SV(P)) printgap
%output
    printlevel normal
end
* xyz 0 1
C 3.2984651106 -1.673963427 2.5076684533
C 1.920221573 -1.688982193 1.8789187134
O 1.6716811174 -0.4832222759 1.1285992358
P 2.3937769785 -0.2089481508 -0.2747386673
S 2.9533105606 -1.7949351056 -1.2661433287
O 3.6205751399 0.746597072 0.0268558113
C 3.5555709626 1.9059925773 0.8923061627
C 3.3196099324 3.172265703 0.0940885103
S 0.9357836109 1.0179012122 -1.1988239134
C -0.0564257686 -0.341868755 -1.8679950036
S -0.9582993273 -1.2561535938 -0.6021653043
P -2.3511443445 0.3098681584 -0.1613357755
S -2.9224728486 1.3882143659 -1.6888655199
O -1.6709817989 1.2414464874 0.911491884
C -1.2141821313 0.7769495566 2.203515032
C -2.2100258722 1.1520849087 3.2813828008
O -3.4514569085 -0.4411641291 0.7034747631
C -4.1189089172 -1.659794181 0.3243119207
C -4.7736162472 -1.5717873679 -1.037870661
H 4.0571260937 -1.632458756 1.7262276094
H 3.4123781093 -0.8107476583 3.1582042696
H 3.4397426746 -2.5813885761 3.0861378349
H 1.1305405348 -1.7047332584 2.6310935505
H 1.8103647619 -2.5452390556 1.2064872646
H 2.7686715372 1.752386197 1.6343951561
H 4.530477464 1.9263956365 1.382637476
H 4.0737939987 3.268704007 -0.6820282126
H 2.3377027198 3.1550995065 -0.3754122778
H 3.3791154511 4.0278916656 0.7595764995
H 0.5994389186 -1.0539715119 -2.369510577
H -0.768191176 0.1083267544 -2.5612787545
H -1.0633546851 -0.3052918491 2.1592016186
H -0.2538705499 1.2742864071 2.3537919988
H -3.1611860791 0.6585487394 3.1000942823
H -1.8233639938 0.8463264732 4.2484831669
H -2.3691305017 2.226775577 3.2802585745
H -3.386289622 -2.471324528 0.3490099514
H -4.8595432112 -1.8028369419 1.1131475676
H -5.3341119795 -2.4813567569 -1.2283337946
H -5.4453584752 -0.7177890251 -1.0821055703
H -4.0172146736 -1.4525666637 -1.8123640164
*
