! pbe def2-sv(p) def2/J RI DEFGRID1 loosescf d4 GCP(DFT/SV(P)) printgap
%output
    printlevel normal
end
* xyz 0 1
C 4.1720569345 -1.4421685087 -2.2262291884
C 4.6290091062 -1.2925836637 -0.7899018023
O 3.5268594493 -1.2075706234 0.1328517923
P 2.5177678888 0.0210082052 0.1451704781
S 3.3112934027 1.7813838015 -0.1463344796
O 1.8505436434 -0.0911658866 1.5698071656
C 1.2580637953 -1.3019613827 2.0967807462
C 2.2500853524 -2.0637909457 2.95121522
S 0.9974584324 -0.5659534535 -1.2407441341
C 0.3047516285 1.0855309589 -1.4714415268
S -0.5737587452 1.6861036694 -0.0043333036
P -2.2018514915 0.3337006568 -0.1328778495
S -2.7699213764 -0.0697180775 -1.9705728071
O -3.3253212868 0.9757675916 0.786436188
C -4.2431900137 1.9750366455 0.2989256973
C -5.5439875363 1.8348669232 1.0642903272
O -1.6762985983 -0.8491560859 0.7770601362
C -2.5382770886 -1.8007675197 1.4470385272
C -3.3874957443 -2.5930645829 0.4759751533
H 3.4645290897 -2.2626514297 -2.3169083147
H 3.6907653145 -0.5251116632 -2.5624533531
H 5.0336960472 -1.6370283209 -2.8566182951
H 5.2430607165 -0.3945044246 -0.6735971728
H 5.1834509744 -2.1689678847 -0.451243373
H 0.409820053 -0.9490610969 2.687094599
H 0.8978240367 -1.9110809905 1.262467066
H 2.6345466609 -1.4182912781 3.7361580798
H 1.7509716241 -2.916874963 3.4002476915
H 3.0812054272 -2.412223561 2.3444185007
H -0.3889712339 1.0230768052 -2.310192717
H 1.1091560552 1.7954397079 -1.6649202255
H -3.7868901531 2.9543688575 0.4610624641
H -4.3923444561 1.8197376626 -0.7750896524
H -6.2330094094 2.6057760479 0.7354108972
H -5.9861141535 0.8595959582 0.8801084378
H -5.3625073149 1.9462591213 2.1294056745
H -1.8374778805 -2.4449656405 1.9807920043
H -3.1607570843 -1.254532866 2.1585676771
H -4.0839968242 -1.9342545672 -0.0407083862
H -2.759403346 -3.0775323224 -0.2680639718
H -3.9487011251 -3.3465198799 1.0197499215
*
