! pbe def2-sv(p) def2/J RI DEFGRID1 loosescf d4 GCP(DFT/SV(P)) printgap
%output
    printlevel normal
end
* xyz 0 1
C 5.1937134098 -1.1133563689 -0.5679542802
C 4.5524838273 -0.2574067632 -1.6375396493
O 3.5311074133 0.6347482262 -1.1213209221
P 2.3239623997 0.2496499613 -0.192946686
S 0.9380571886 1.6380429981 -0.2495558832
O 3.0298347286 0.0380157168 1.2164341977
C 2.28724082 -0.2486380365 2.4177344012
C 2.1003404974 1.0146903194 3.2358883292
S 1.7281350687 -1.7172072552 -0.77097371
C -0.0273800442 -1.4740234939 -1.0957677489
S -0.988668274 -1.1891875783 0.4252480048
P -2.3174422039 0.3432289815 -0.2384458285
S -2.1517967923 0.7974433235 -2.1375760604
O -2.171069746 1.6241924466 0.6587672164
C -2.6127480424 1.756941895 2.0329441339
C -1.9165096642 0.7869134003 2.9630994205
O -3.7338606854 -0.1988631641 0.2545852447
C -4.3001390249 -1.470391672 -0.1078948429
C -4.9160189771 -1.449225163 -1.4929959998
H 5.5720289266 -0.4899463511 0.2376364964
H 4.4680220291 -1.8165793262 -0.163313419
H 6.0146901496 -1.6701702173 -1.0092446171
H 4.0941875419 -0.8787909845 -2.4107846783
H 5.2698938447 0.4284660641 -2.0906779302
H 1.3228226797 -0.6960590827 2.1558415549
H 2.8917865522 -0.9823723009 2.9540730421
H 1.5272293495 1.7460227601 2.6685510896
H 1.574061904 0.7762619061 4.1547088806
H 3.0669663436 1.4484179195 3.4758976466
H -0.3672874335 -2.3966872779 -1.5599704395
H -0.1823852308 -0.6183191947 -1.7584925729
H -2.3609564676 2.7918050649 2.270408664
H -3.6956191964 1.6203556455 2.0554817791
H -2.2063397309 1.0064239077 3.9857820485
H -2.1969034529 -0.2381679111 2.7254291434
H -0.83870608 0.8876325972 2.8660947887
H -3.5227886616 -2.2368481931 -0.0344149709
H -5.0585331291 -1.6453127161 0.6580110131
H -4.1540921013 -1.2602524536 -2.2462505116
H -5.3836924353 -2.4083066949 -1.6910432721
H -5.6640579017 -0.663580602 -1.5586062525
*
