! wb97x-v def2-tzvp def2/J RIJCOSX DEFGRID2 scfconv7 GCP(DFT/TZ) printgap
%output
    printlevel normal
end
* xyz 0 1
C 0.8803705756055691 1.3791500287185774 -0.6450899684007859
C 1.5947561327892612 0.1682420195338698 -0.08106003782272864
H 2.5654421740362077 0.06169796903522881 -0.587407574370899
C 0.7641823374012124 -1.1069010599100542 -0.3062960234075237
H 1.1985081288942963 -1.93133675279662 0.27845319072528896
C -0.6877893921871989 -0.9006848586989933 0.14102980512029095
H -1.29359825172522 -1.7449388491053368 -0.20538317291726588
C -1.2673622205175927 0.3889510436039864 -0.44954218733032913
H -1.3415674196193232 0.3223982533964529 -1.5437528816708803
O -0.4425563104940221 1.509740783281698 -0.09542941440352883
O -2.5548101080900683 0.6428036537212801 0.04714869578936154
O -0.7937122030753405 -0.8696338147813706 1.5678123778009372
O 0.7212682402357606 -1.4380762837411523 -1.697898898802547
O 1.78359591544471 0.3950662517463146 1.329642060701173
H 0.8294952822965252 1.297241720001096 -1.7398740392982484
H 1.4155468851003226 2.295123961169663 -0.38338455216503703
H -2.5342946166137854 0.4247698757308276 0.9933511328704395
H -0.09320176921754184 -0.2739662851113362 1.885043709641964
H 1.6282292287002227 -1.6088148840131948 -1.9864499240668894
H 2.2983623747251816 -0.3452797456266956 1.6798197000501602
*
