! pbe def2-sv(p) def2/J RI DEFGRID1 loosescf d4 GCP(DFT/SV(P)) printgap
%output
    printlevel normal
end
* xyz 0 1
C 3.9288121374 -4.0678521108 -0.63392286
C 2.4499760909 -3.7827208814 -0.8427162967
O 2.0670751207 -2.5431604355 -0.2152562876
C 2.2742389586 -1.4209781845 -0.8734527717
O 2.732498386 -1.3480170525 -1.9910355506
C 1.8350934764 -0.2141407469 -0.0634330959
C 0.8502423332 0.6083394238 -0.8927909665
H 1.3144487896 0.866662642 -1.8495240909
C 0.4206711869 1.8735682793 -0.1794333951
O -0.7443272539 2.1133370377 0.0748245243
O 1.4310330946 2.6324903246 0.1280028949
C 1.175578455 3.8675668418 0.835573222
C 0.8021368593 4.9796642369 -0.1297098088
S -0.6457631562 -0.3405495984 -1.3308714124
P -1.8172150092 -0.1460770875 0.436614587
S -0.9684239834 0.0508120822 2.2031022562
O -3.1117849227 0.7103208822 0.1191069976
C -3.4477770078 1.9671526865 0.7102337169
O -2.5977411943 -1.5448422608 0.3327173744
C -1.9209169622 -2.7812456583 0.5650683159
H 4.1682487443 -5.0399533114 -1.0519921447
H 4.5295827229 -3.3113593646 -1.1333643024
H 4.1642154954 -4.0656423873 0.4268157961
H 1.8278947742 -4.5355491802 -0.3585729923
H 2.2143758898 -3.7184139045 -1.9088686756
H 2.7092462822 0.4038065971 0.1506419739
H 1.3858556494 -0.5476973817 0.8730448645
H 0.3786282777 3.691153576 1.5628549255
H 2.1153533696 4.0791348677 1.3447701415
H -0.1326740199 4.7451343852 -0.6335806059
H 0.679818012 5.9047700964 0.4235572769
H 1.5833407387 5.1079998859 -0.8737259407
H -4.5233486278 1.9437850463 0.8720499016
H -3.1744259459 2.7691275546 0.0272637803
H -2.9232249656 2.0961222944 1.658288446
H -1.2208554813 -2.9881476147 -0.2456338209
H -2.6992125991 -3.5391313951 0.5989227953
H -1.3843484822 -2.7427151601 1.5155556838
*
