! wb97x-v def2-tzvp def2/J RIJCOSX DEFGRID2 scfconv7 GCP(DFT/TZ) printgap
%output
    printlevel normal
end
* xyz 0 1
C -0.7308460059266039 -1.261318045299566 0.233303527871356
C -1.4581911541992991 0.002136136927371958 -0.23336114029796814
C -0.727106042992918 1.2634085268018538 0.23334899143055254
C 0.7308068267587379 1.2612704654459728 -0.2333225626434986
C 1.4581744976191016 -0.002141458850339797 0.23340316877950842
C 0.7271180375263452 -1.2634650339823184 -0.23322341586813475
H -1.2484697610634639 -2.1554505490886484 -0.1342429863315774
H -0.7568964859413856 -1.3056245979270296 1.3313971684943493
H -1.5096424934238941 0.002237377800259636 -1.3314132464653372
H -2.4911529920036957 0.003651826689403519 0.13455285810190507
H -1.2421333219793087 2.1590980546163396 -0.13405578585616237
H -0.7529269660068328 1.3076900599424388 1.3314529801726074
H 0.7567285418065691 1.3054408418598977 -1.3314279013684402
H 1.2484690533361364 2.155451616784587 0.13405169836583983
H 2.491127059540298 -0.0036758569192650017 -0.13453558749684738
H 1.5096606620518065 -0.002168100715307295 1.3314522094257408
H 0.7530484862262902 -1.3078700589747418 -1.3313158723335459
H 1.2421161342373803 -2.159107509912427 0.13433020766927262
*
