! wb97x-v def2-tzvp def2/J RIJCOSX DEFGRID2 scfconv7 GCP(DFT/TZ) printgap
%output
    printlevel normal
end
%cpcm
    smd true
    smdsolvent "water"
end
* xyz 0 1
C -1.8467064527125567 -0.6472147443056103 -0.13586127752889002
C -1.3526128480193 0.5238704055435955 0.2501682762115203
C 0.07131527817027446 0.9465494645888239 0.32719814322458995
Cl 1.2634898700441837 -0.3419362435271047 -0.18080931695758318
H -2.919168731017296 -0.8134398665265922 -0.14079571324908247
H -1.2094002325472757 -1.4666586197398008 -0.45386120602742347
H -2.0280613457496264 1.3216313156158648 0.5626696306227835
H 0.25704459544358454 1.8080731615110435 -0.3208042021282829
H 0.33983443994394913 1.2262486021367403 1.350099086969577
*
