! pbe def2-sv(p) def2/J RI DEFGRID1 loosescf d4 GCP(DFT/SV(P)) printgap
%output
    printlevel normal
end
* xyz 0 1
C 5.6761297923 -0.200072626 -0.8661510863
C 4.5508921232 -1.0153216891 -1.4675161605
O 3.4282916893 -1.1278068719 -0.5687288308
P 2.5067834891 0.1093432053 -0.2029862905
S 2.180802082 1.3581301123 -1.6868404307
O 3.2381830691 0.7218147114 1.0660464787
C 2.9342858214 2.0282325831 1.5845047969
C 1.5497129161 2.0873175283 2.1956939509
S 0.8793858115 -0.9615971108 0.5840368185
C 0.0299668277 -1.2359119433 -1.0144506555
S -1.6593148011 -1.7884901061 -0.7652149754
P -2.5478580965 0.0549636864 -0.1243400728
S -1.4386611377 1.656794076 -0.3244981861
O -3.1052030985 -0.2475844256 1.3329906359
C -2.2793398557 -0.4282762039 2.498561789
C -2.083117998 0.8842052978 3.2322307764
O -3.86957092 0.1988983813 -0.9600826525
C -4.7524710054 -0.8675561324 -1.3926036556
C -5.169911193 -1.7898915407 -0.2687872463
H 5.3617148566 0.8364736398 -0.7521663207
H 5.945802735 -0.5950081958 0.1097070711
H 6.5387915273 -0.2366197046 -1.5240423156
H 4.8480211456 -2.0500786529 -1.6428463698
H 4.201367332 -0.5613418971 -2.4005652441
H 3.7125418538 2.2001472143 2.3294320205
H 3.0258582973 2.7558428126 0.77151912
H 0.7936014484 1.9923009525 1.4157657724
H 1.4203083516 1.281481534 2.9140768405
H 1.4142041386 3.0421142907 2.693492355
H 0.5384549461 -2.0258638876 -1.5623187581
H 0.0357732233 -0.2933153196 -1.5680092874
H -2.8285429146 -1.1454176443 3.1118129089
H -1.3176628858 -0.8600179898 2.2039781881
H -1.4954935972 0.710413431 4.1275426511
H -1.5614011313 1.5960159164 2.5969468751
H -3.0457110461 1.3055535935 3.5078625476
H -5.6037560173 -0.32654209 -1.8086710594
H -4.2430407542 -1.4241107488 -2.1829506042
H -4.3109350003 -2.3499011506 0.0959817166
H -5.5959830146 -1.217114811 0.55044727
H -5.9115638719 -2.4882609455 -0.6442812104
*
