! pbe def2-sv(p) def2/J RI DEFGRID1 loosescf d4 GCP(DFT/SV(P)) printgap
%output
    printlevel normal
end
* xyz 0 1
C 5.1868484263 0.9111751896 -0.0900309712
C 3.8833675555 1.2818910221 -0.7651042577
O 3.0150874491 0.1383448403 -0.9098463166
P 2.3149132799 -0.5381799433 0.3376922193
S 1.8966846158 0.6485403847 1.8483504453
O 3.329573748 -1.7026288337 0.7130569732
C 3.235499944 -2.4280788302 1.9498985868
C 1.9820347694 -3.2770089548 2.0068283222
S 0.7465319824 -1.555361531 -0.6640839095
C 0.207358905 -0.2497480941 -1.8048613459
S -0.3256750799 1.2755713847 -0.9772619496
P -2.3449557654 0.751014806 -0.5863134984
S -3.0085164483 -0.9090611087 -1.3998787548
O -3.0487140479 2.0633034004 -1.1217062786
C -4.4253200978 2.0743770594 -1.5496055
C -5.3721611154 1.9455536441 -0.3750698704
O -2.5428117994 0.9406094558 0.9802919703
C -1.8434022898 0.2499322496 2.0275920061
C -2.0561974838 -1.250243108 1.9933897233
H 5.8517877236 1.7691348678 -0.0947876026
H 4.9981573024 0.615007434 0.9410219149
H 5.6577307818 0.0829056785 -0.6128456176
H 4.0392416192 1.6247036679 -1.7887683354
H 3.3526967996 2.0501471511 -0.1933289104
H 4.1400020364 -3.0371373298 1.9690239906
H 3.2504537524 -1.7087126559 2.7754498913
H 1.9310814851 -3.9367338715 1.1444501052
H 1.9837904097 -3.8685012538 2.9166034118
H 1.1022845734 -2.6331706097 2.0031474529
H -0.6312078854 -0.6763695604 -2.3578430522
H 1.0283791746 0.0148207744 -2.4646188527
H -4.5346856309 3.0325526021 -2.0588371017
H -4.5761528296 1.2543956726 -2.2593150239
H -5.1700868527 2.7224849306 0.3573980532
H -6.3963962463 2.0312442109 -0.7241046779
H -5.2369961444 0.9740135379 0.0988004522
H -0.7787515186 0.4972620761 1.9636834351
H -2.2554526737 0.6871609889 2.9389844434
H -1.6005690931 -1.6847574913 1.104629308
H -1.5998366735 -1.6913480685 2.8741426141
H -3.1184727901 -1.4817041679 1.9855915848
*
