! pbe def2-sv(p) def2/J RI DEFGRID1 loosescf d4 GCP(DFT/SV(P)) printgap
%output
    printlevel normal
end
* xyz 0 1
C 5.4022426942 -1.7600265012 -0.4713841651
C 4.2522044355 -2.3255468799 0.3466094415
O 3.0069231335 -2.2166373579 -0.3732585101
C 2.3226640215 -1.0998711956 -0.2823881933
O 2.65922974 -0.132175147 0.3725350621
C 1.0303548559 -1.1684023749 -1.0601155375
C 0.4610674898 0.2293729698 -1.2796625556
H 0.8974401277 0.7152050086 -2.153649623
C 0.6443513516 1.1271020697 -0.069481189
O 0.0496422182 0.9279308652 0.9753748695
O 1.359554178 2.1834829672 -0.3411441883
C 1.6117962349 3.1365404687 0.7121745553
C 1.8641873429 4.4899476697 0.0764777643
S -1.3347174604 0.1876408936 -1.570778117
P -2.1417063483 -0.2903174173 0.3521777296
S -1.383952595 -1.7317424258 1.4470541656
O -2.5258345618 1.0461573859 1.1116216689
C -3.3976782963 2.0328526174 0.526224371
O -3.6130622953 -0.6914433445 -0.1638180004
C -3.8654556734 -1.9283470739 -0.8350077536
H 6.3326463986 -1.9183880941 0.0637002901
H 5.4537573694 -2.2566761252 -1.4361362771
H 5.2615595878 -0.6927944745 -0.6267983155
H 4.1521860881 -1.7965382311 1.298640393
H 4.3713332101 -3.3952947497 0.5179000394
H 0.3478039492 -1.7651314202 -0.4416409933
H 1.1763714314 -1.692900325 -2.0028868513
H 0.7483057178 3.145749128 1.3847841986
H 2.4837911469 2.7760787802 1.2655752389
H 2.7042005962 4.4245830104 -0.6080344944
H 0.9865232558 4.8182298918 -0.4725959969
H 2.0901238308 5.2113019998 0.8545762395
H -3.308409679 2.9055902359 1.1683131351
H -4.4198610094 1.6591331207 0.5171728859
H -3.0783988758 2.2646503298 -0.4905869916
H -3.3756550528 -2.7471968282 -0.3051231517
H -3.5004511207 -1.8738740727 -1.8601041763
H -4.9446707733 -2.0565455782 -0.8177260517
*
