! pbe def2-sv(p) def2/J RI DEFGRID1 loosescf d4 GCP(DFT/SV(P)) printgap
%output
    printlevel normal
end
* xyz 0 1
C 5.4158689442 -1.0023854418 -1.6222954511
C 4.0887331223 -0.3303706873 -1.9089381601
O 3.6249447481 0.399334457 -0.7461914217
P 2.5743234885 -0.1676000275 0.2842353862
S 2.3588267342 1.1298912097 1.7334432931
O 3.1563091223 -1.6064714524 0.6207363578
C 2.4013067844 -2.6778313406 1.2172750166
C 1.8278813974 -2.3031897872 2.5678925496
S 0.8372981619 -0.6338517084 -0.8741078528
C 0.1012749912 1.0193207438 -0.8424751375
S -0.9436193522 1.3031271408 0.6127948166
P -2.7497831016 0.4266286049 -0.125428599
S -2.8382468652 0.1643757172 -2.0718675256
O -3.9190582034 1.3067962166 0.4727817716
C -4.4830821472 2.4119580808 -0.2527020227
C -3.5263379524 3.5850922903 -0.3346277905
O -3.0174478195 -0.820994683 0.8117184391
C -2.0799697847 -1.8817442848 1.0603774613
C -1.9796702766 -2.8425775239 -0.1083287736
H 6.1460420544 -0.2625410511 -1.3059666424
H 5.3022156093 -1.7398810104 -0.832527187
H 5.7686367628 -1.4921279687 -2.524537648
H 3.327194645 -1.059733185 -2.1991377111
H 4.1885067563 0.4283268018 -2.6873011892
H 1.6073920984 -2.9646858071 0.5218617305
H 3.1274230139 -3.4878273591 1.3050039483
H 2.6199167782 -1.9810704149 3.2394496931
H 1.1199849837 -1.4819030437 2.4636084531
H 1.3179946068 -3.1599845546 2.9961006712
H -0.5093046295 1.1040315764 -1.7430952357
H 0.8905765202 1.7671730574 -0.8137502679
H -4.7591781723 2.0691950965 -1.2556013976
H -5.381545042 2.665190731 0.3116323912
H -2.6726315981 3.3267236613 -0.9598962419
H -4.0370906517 4.4369854578 -0.7719795973
H -3.167516819 3.8487082901 0.6572772127
H -1.1029236379 -1.4464612423 1.2952499742
H -2.4786271356 -2.3758613092 1.9482958203
H -1.538175056 -2.3486156581 -0.9722028739
H -1.3571033027 -3.6856863065 0.1730959695
H -2.9688222185 -3.2010789119 -0.380418307
*
