! pbe def2-sv(p) def2/J RI DEFGRID1 loosescf d4 GCP(DFT/SV(P)) printgap
%output
    printlevel normal
end
* xyz 0 1
C 3.3931364537 -1.2362550218 1.9522314094
C 2.7844855229 -2.0918567651 0.8535036419
O 2.6288805217 -1.3333171542 -0.3651718262
C 1.5964031183 -0.5512627523 -0.4999399584
O 0.7316822881 -0.3872913306 0.3550610161
C 1.5380415677 0.1697912727 -1.8196892934
C 0.3477413008 1.1160818357 -1.7754912456
H 0.3153040482 1.7540370283 -2.6619557355
C 0.3664964159 1.9953538379 -0.533046325
O -0.6242289806 2.358394823 0.0573665705
O 1.5974013055 2.341152381 -0.2158771639
C 1.7983264882 3.2088789944 0.9192628729
C 3.0616163932 4.0147257216 0.6858087187
S -1.2572225029 0.2339734232 -1.8550187748
P -1.6352469798 -0.8193117963 -0.0607881222
S -1.0023576176 -2.6499173978 0.3199111021
O -1.8350569677 0.0938105556 1.2342736207
C -1.0392269698 0.0841572455 2.4123117906
O -3.169936392 -0.8807744137 -0.5485513476
C -4.1499712494 -1.6688867675 0.1270894653
H 4.3415604165 -0.8219408236 1.6220379039
H 2.7182393529 -0.4236203022 2.212455818
H 3.5557566836 -1.849890069 2.8318994558
H 1.8072282913 -2.483679514 1.1497493589
H 3.4450839796 -2.9111606329 0.5720394391
H 1.4237844212 -0.5555073666 -2.6266004518
H 2.4697624748 0.7161353654 -1.9717284312
H 0.916442131 3.8470778476 1.0289588277
H 1.8866229754 2.5757728499 1.8080070131
H 2.9577953273 4.6241631304 -0.2068995474
H 3.2332015674 4.6604770662 1.5404952969
H 3.9112386442 3.3503754087 0.5628309013
H -1.7202357529 0.2984263397 3.233262964
H -0.2768892282 0.857914506 2.3373647224
H -0.5709402808 -0.8929259753 2.5434441963
H -3.7361899795 -2.6479888804 0.3814559144
H -4.9757902971 -1.7773007557 -0.5717019854
H -4.4776876814 -1.1590704967 1.0328719067
*
