! pbe def2-sv(p) def2/J RI DEFGRID1 loosescf d4 GCP(DFT/SV(P)) printgap
%output
    printlevel normal
end
* xyz 0 1
C 3.7990705067 1.3835912177 -1.8206438839
C 2.5356228362 0.619530512 -2.1511552229
O 2.3194425272 -0.4785450345 -1.2428359406
P 2.0012288582 -0.2705507518 0.290588349
S 0.9013288215 1.2876860922 0.7743051987
O 3.4496078319 -0.2341041259 0.9392074983
C 3.6573956339 0.0578345342 2.3358093613
C 5.0997343045 0.4874596031 2.5136329882
S 1.3822070128 -2.2119386763 0.8260468039
C -0.3041138794 -2.2907399595 0.1557946975
S -1.4873066114 -1.2373009118 1.0499237694
P -2.0338443234 0.0622252011 -0.5250514749
S -0.9318879008 0.0891626521 -2.1395817756
O -2.2466339942 1.5102663263 0.0732866687
C -3.1503210535 1.8157145135 1.1632569216
C -2.4324333643 1.7935515034 2.4976501114
O -3.4982156861 -0.5460987259 -0.7689704417
C -4.2045401828 -0.3790133195 -2.0117648315
C -4.6843808697 1.0456276086 -2.2055059467
H 4.6446388484 0.7029269953 -1.768588805
H 3.9774901734 2.1299904885 -2.5883474796
H 3.6864329966 1.8828076811 -0.8590005299
H 2.5875741382 0.1381548539 -3.1286400003
H 1.6594157275 1.2753072848 -2.119002285
H 2.9608345993 0.8491405181 2.6332893838
H 3.4371972351 -0.847248632 2.9077152058
H 5.2955250776 1.3929235896 1.9462065737
H 5.2866829243 0.6766006749 3.5654971976
H 5.7638803252 -0.2975886016 2.1643028589
H -0.6137100917 -3.3250261384 0.279048697
H -0.2902306359 -1.9979309162 -0.8967528023
H -3.5089874653 2.8193282748 0.9274237095
H -3.9808666052 1.1051053774 1.1463781436
H -2.1614925968 0.7775072088 2.7752631309
H -1.5231988426 2.3869506698 2.4353563737
H -3.0846806633 2.2093357794 3.2589444333
H -3.5395188197 -0.6737889235 -2.8298049743
H -5.0358299479 -1.081423733 -1.9378331335
H -5.3240736726 1.3486228512 -1.3805759614
H -3.8289579607 1.719203288 -2.257240538
H -5.2409842411 1.1128897325 -3.1350215089
*
