! r2scan-3c def2/J RI DEFGRID2 scfconv6 printgap
%output
    printlevel normal
end
%cpcm
    smd true
    smdsolvent "water"
end
* xyz 0 1
C 5.0149499737 0.17897 -0.2797496327
C 4.6838688183 -1.0109369313 -1.1657423411
O 3.3613403776 -1.4990386699 -0.8611061225
C 2.3898187331 -1.3041468104 -1.730416002
O 2.5183733239 -0.7857293141 -2.815924185
C 1.065909739 -1.8309347915 -1.2001121869
C 0.1365033295 -0.6371496029 -0.9544927134
H -0.0206796443 -0.0896026013 -1.88792435
C 0.8201928819 0.2853660878 0.0369081017
O 1.7341981867 1.0058447991 -0.2928495911
O 0.3731400332 0.1372781528 1.2654330016
C 1.0424198921 0.8520224418 2.3237495586
C 2.1358578838 -0.0151501795 2.9238074244
S -1.4644500314 -1.2460527811 -0.3361824449
P -2.2716252093 0.5999835264 0.3349039291
S -1.4890980929 2.2228648109 -0.440168353
O -3.8332394832 0.4110753061 0.0420112229
C -4.3454179081 0.3882309718 -1.2949157925
O -2.2805052801 0.6073232684 1.9121741721
C -2.8484498809 -0.4795052116 2.6754049624
H 5.0590851956 -0.1247484866 0.7623999385
H 5.975208879 0.5899825139 -0.5725294445
H 4.2494679615 0.94450418 -0.3927674125
H 5.3557367139 -1.8497348807 -0.975960577
H 4.7119031671 -0.7331629974 -2.222786863
H 1.2329842059 -2.3809039675 -0.2744095525
H 0.6155736496 -2.4828952533 -1.9489948071
H 1.4486232572 1.7784050579 1.9079318143
H 0.2574618141 1.0795840823 3.045529734
H 2.6248013502 0.5307854208 3.7235240159
H 1.7125581096 -0.9335029473 3.3201883416
H 2.8710702802 -0.2628084098 2.1612804573
H -3.9582755695 1.2371935284 -1.8606033183
H -5.4254433291 0.4597674025 -1.1954627928
H -4.0648423257 -0.5448131676 -1.783349864
H -2.6270433251 -0.2440951096 3.7129725397
H -2.3830853147 -1.4202280995 2.3817852144
H -3.9225913088 -0.524810865 2.5092683383
*
