! pbe def2-sv(p) def2/J RI DEFGRID1 loosescf d4 GCP(DFT/SV(P)) printgap
%output
    printlevel normal
end
* xyz 0 1
C 4.0617425547 -0.1304811219 -2.7891836823
C 2.6068675807 -0.3030553244 -2.4050758775
O 2.2549487569 0.6049974116 -1.3323254238
P 2.1148116702 0.1662878805 0.1680608688
S 1.4964292063 1.6603802222 1.2702078383
O 3.5887449248 -0.3717346782 0.4591332793
C 3.9731607094 -1.2091783312 1.5636713346
C 3.7225631554 -0.5601323584 2.9093391158
S 0.9503646357 -1.6238079936 0.2425185446
C -0.2593253307 -1.1521147891 1.5184677099
S -1.9926940752 -1.3865209253 1.0321950871
P -2.3396865208 0.2116233613 -0.3281167828
S -0.8546935525 0.7940319373 -1.4801529251
O -3.0206445596 1.3537667734 0.5339077144
C -2.2882632817 2.1602614109 1.4763912103
C -3.0558506072 3.4511452005 1.6774201302
O -3.6505019413 -0.2360888416 -1.0791674639
C -3.5968622171 -0.970415988 -2.317905346
C -3.0279473524 -2.3628934181 -2.1331078501
H 4.2491008977 0.9003534555 -3.0769563539
H 4.7045168718 -0.3816074362 -1.9495890052
H 4.2874150843 -0.784443932 -3.6255121282
H 2.3958610401 -1.3286489186 -2.0885442656
H 1.9361421603 -0.0308307562 -3.2227485751
H 3.4317140365 -2.156165608 1.4809491604
H 5.0387686448 -1.3773655175 1.3979454191
H 2.6556867168 -0.4098529561 3.0660382878
H 4.1111735762 -1.2002624454 3.6947450099
H 4.212589928 0.4092741532 2.9587185857
H -0.0725354761 -0.1091189396 1.7913484342
H -0.1225648346 -1.8162595322 2.3682458232
H -2.2065919105 1.6018494042 2.4136707902
H -1.2814893236 2.3560343096 1.0890474948
H -4.0589746078 3.2315126154 2.0308456427
H -2.5365186785 4.0616738559 2.408741237
H -3.1234834118 3.9943776485 0.739009841
H -4.6363645315 -0.9986551078 -2.6470635998
H -2.9951163646 -0.399886236 -3.0327683322
H -3.1195790195 -2.9142563001 -3.0634241431
H -1.9741517383 -2.3020055232 -1.862143235
H -3.5630406853 -2.88828864 -1.3460675189
*
