! pbe def2-sv(p) def2/J RI DEFGRID1 loosescf d4 GCP(DFT/SV(P)) printgap
%output
    printlevel normal
end
* xyz 0 1
C 3.0633482 -1.9271288083 1.5827784006
C 2.8455560514 -2.5056440984 0.1943255148
O 2.6635406914 -1.4465762127 -0.7663050767
C 1.4554994864 -1.0936294894 -1.1253541016
O 0.4333249877 -1.6268824394 -0.7240230841
C 1.4645046335 0.0427582487 -2.120486269
C 0.3812536616 1.0635547319 -1.7881824614
H 0.3558106268 1.8447237085 -2.5534199298
C 0.5541757461 1.7388079327 -0.4378663942
O -0.3759555944 2.2311555615 0.1668161764
O 1.7988386936 1.7226312757 -0.034021476
C 2.1163405197 2.3345938329 1.2338375796
C 2.258908483 3.8406261043 1.09559402
S -1.3104240703 0.3549746527 -1.8384966131
P -1.6104197275 -0.3172653057 0.1411778853
S -0.4372162674 -0.3654821026 1.7264091938
O -2.8700211908 0.6458632082 0.365877918
C -3.6051978758 0.6661093782 1.5912244805
O -2.3990396194 -1.698440384 -0.0497905651
C -1.8713221088 -3.0048412303 0.1711936596
H 3.2566831598 -2.7342664017 2.2812775176
H 3.9103027693 -1.2474011298 1.5753056658
H 2.1767866821 -1.3859555706 1.9101634626
H 1.9663224051 -3.1550059987 0.1756675192
H 3.7270076755 -3.0459084746 -0.1528942928
H 1.2572080152 -0.3714980159 -3.108977028
H 2.4478246494 0.5116352684 -2.114448106
H 1.3309776767 2.0737122924 1.9494386627
H 3.0570006904 1.866352738 1.5227733472
H 3.0054783562 4.0788455996 0.3431417705
H 1.3073491305 4.2823845028 0.8083912005
H 2.5647577966 4.2562923574 2.049794013
H -4.2518369118 -0.2093757383 1.6501781987
H -4.1927391515 1.5802387904 1.5659326082
H -2.9196447128 0.6789743474 2.4417033238
H -1.1517624213 -2.9822400596 0.9912374157
H -1.3847779618 -3.3606659677 -0.7346328359
H -2.72472785 -3.6288903846 0.4263391304
*
