! r2scan-3c def2/J RI DEFGRID2 scfconv6 printgap
%output
    printlevel normal
end
%cpcm
    smd true
    smdsolvent "water"
end
* xyz 0 1
C 3.4461343659 -2.3803065222 1.8844669135
C 3.5278624329 -0.8736117567 1.7471553131
O 3.599158433 -0.4858022228 0.3501840044
P 2.3504671723 0.0137184868 -0.4837052266
S 2.8615864742 0.5754012179 -2.2827433446
O 1.6317828704 1.130142122 0.4247893332
C 1.811562636 2.5349624039 0.1813110834
C 3.1799392409 2.9995200755 0.6359047164
S 0.9247624662 -1.5332339906 -0.324557746
C -0.1460306755 -0.9931916841 -1.6801827324
S -0.8226838997 0.6859744766 -1.4798840357
P -2.3809757403 0.2612125734 -0.1148080778
S -3.3406088321 1.8211567125 0.5768312048
O -1.7470608621 -0.6841293387 0.9961227845
C -1.0930478351 -0.1651734621 2.1688872237
C -0.7888638264 -1.339985026 3.0757249336
O -3.2061777852 -0.7767568425 -0.981309796
C -4.592723824 -1.0635317699 -0.6978347627
C -4.7605781031 -1.7779835349 0.6261115101
H 3.4733542241 -2.6412889536 2.9377074634
H 2.523963234 -2.7553811973 1.4459240727
H 4.2870304561 -2.8451488186 1.3775899297
H 4.4523663568 -0.487958507 2.1802514418
H 2.6685011034 -0.3832214468 2.2103887604
H 1.6699879311 2.7239794468 -0.8877982812
H 1.0071980253 3.0138049908 0.7430324018
H 3.9496350399 2.4814470047 0.0639261213
H 3.2720890027 4.0673398631 0.4650042106
H 3.3208213941 2.7898399903 1.6930325587
H -0.9603136027 -1.709209913 -1.7485490318
H 0.4377001383 -0.9605578452 -2.599536068
H -0.1769715687 0.3480067175 1.8622734402
H -1.7597326323 0.5619749823 2.6437352941
H -0.2770307632 -0.9829823066 3.9631687288
H -1.7103171233 -1.834761383 3.3675908
H -0.156863434 -2.0514989436 2.5512938239
H -5.1475615253 -0.1202341558 -0.7019042041
H -4.9063314561 -1.68288882 -1.5391702788
H -5.7997746241 -2.0665801999 0.7492338889
H -4.1311580589 -2.6633150234 0.6591424803
H -4.4796644459 -1.1123464225 1.4410902163
*
