! pbe def2-sv(p) def2/J RI DEFGRID1 loosescf d4 GCP(DFT/SV(P)) printgap
%output
    printlevel normal
end
* xyz 0 1
C 3.2015129001 0.1449911508 3.3283441351
C 1.8745833105 -0.3391956842 2.7836932973
O 1.5871820839 0.2437193913 1.4937590651
P 2.3656419795 -0.193897004 0.1860345359
S 2.9808681903 -2.0590128289 0.1447218347
O 3.5093297563 0.9045094731 0.0989058185
C 4.6624778785 0.7520754295 -0.7464464171
C 4.3062410759 0.8332707784 -2.216833347
S 0.9603818783 0.3762867263 -1.2867537465
C -0.0656147754 -1.1130046763 -1.141453332
S -1.1646484612 -1.0762776454 0.2896319625
P -2.5267627426 0.3609750797 -0.516352266
S -2.8891274676 0.12707735 -2.426581525
O -1.9276166664 1.7903830895 -0.2185516289
C -2.055076504 2.5323482189 1.0181648475
C -1.3761868466 1.8405980166 2.1808328952
O -3.7874324013 0.3059568307 0.4473168427
C -4.8822578598 -0.6048980314 0.2342475979
C -4.4745589311 -2.0514145356 0.4220927369
H 3.2290442733 1.2312718513 3.3420515577
H 3.3366694639 -0.2343483112 4.3362926301
H 4.0140772711 -0.2194187309 2.701040737
H 1.0375613143 -0.0259759727 3.4087345615
H 1.8704379532 -1.4287295854 2.6790241045
H 5.318825854 1.5694917015 -0.4449032727
H 5.1338479491 -0.2095661099 -0.5187945784
H 5.2157696297 0.8314243803 -2.8089800776
H 3.6976804732 -0.0242889267 -2.5017626616
H 3.7437807613 1.7412220896 -2.4203461367
H 0.5791751288 -1.9859694096 -1.0333879105
H -0.6653692247 -1.172060263 -2.0506949096
H -1.5791394674 3.4859290819 0.7837127537
H -3.1177482901 2.6836348358 1.2174850974
H -0.3345615688 1.6412788448 1.9407095001
H -1.4261569952 2.4836733168 3.0540765031
H -1.8746636856 0.8982948564 2.4012932153
H -5.6222535294 -0.2952047069 0.9737261473
H -5.2722393767 -0.443960641 -0.7754325313
H -5.3581228708 -2.6798496629 0.3766385661
H -3.788857701 -2.3511866604 -0.3689950934
H -3.9828073255 -2.1876157304 1.3820324105
*
