! pbe def2-sv(p) def2/J RI DEFGRID1 loosescf d4 GCP(DFT/SV(P)) printgap
%output
    printlevel normal
end
* xyz 0 1
C 4.8623154615 1.1766413878 0.74424426
C 3.6499284388 1.6231052545 -0.0437730388
O 2.9178668623 0.495055971 -0.5751329145
P 2.1160792671 -0.4855479013 0.3672716911
S 1.3948292983 0.2818768298 2.0239110675
O 3.1493044045 -1.6665986129 0.6128858959
C 2.9588795346 -2.6851775003 1.6124529974
C 4.3234323086 -3.2080379467 2.0153525555
S 0.7808114839 -1.3482529917 -1.0435917739
C 0.2513789205 0.1652770134 -1.9010858296
S -0.5744826175 1.3597718387 -0.8320919456
P -2.4047631966 0.2719179992 -0.6187978665
S -2.9091093455 -0.8216084854 -2.1584171535
O -3.4119633054 1.389324008 -0.1122735739
C -3.6071629398 2.6752772294 -0.731979724
C -3.9369848692 2.5736027275 -2.2060345621
O -2.265814446 -0.6505663892 0.6508444128
C -2.0837954551 -0.1574955151 1.9992449228
C -3.4059319862 -0.1294008639 2.7363141643
H 5.4384251919 2.0465415914 1.0435394731
H 4.5430487264 0.6392400384 1.636291245
H 5.4821305458 0.5195082021 0.1400763703
H 3.9275638794 2.1947528724 -0.9300262016
H 2.9725402597 2.2108684037 0.5837535525
H 2.4307291396 -2.2450879533 2.4658014045
H 2.3413019729 -3.4753540684 1.1769875464
H 4.914563414 -2.4126038641 2.4602901429
H 4.1983526875 -4.00782776 2.7378140137
H 4.8450845798 -3.5891262052 1.1423459918
H -0.4472786784 -0.1683577607 -2.6711502473
H 1.1168225284 0.6606327441 -2.3322822638
H -4.4347042106 3.1081865522 -0.1671800795
H -2.7015662317 3.2684675001 -0.5771092889
H -4.7943562932 1.9225086183 -2.3589720193
H -4.1611987723 3.5621259746 -2.5936185571
H -3.0913256385 2.1600337864 -2.753547359
H -1.3835129831 -0.8570035114 2.4602797469
H -1.6222214545 0.833176006 1.9644115646
H -4.0900567811 0.5647496948 2.2554468771
H -3.8519650989 -1.1201647732 2.7334388508
H -3.2321055483 0.1851818852 3.7604706356
*
