! r2scan-3c def2/J RI DEFGRID2 scfconv6 printgap
%output
    printlevel normal
end
* xyz 0 1
C 5.7981625111 -0.4077561204 0.171497506
C 4.4402654005 -0.8105266826 -0.3672340429
O 3.4436245241 -0.0051300889 0.2918047182
P 1.9795579764 0.1629753634 -0.3055970067
S 1.9356976691 0.5891344687 -2.2222719452
O 1.3574645606 1.1965871714 0.7160297384
C 1.43144423 2.6214971642 0.5141389903
C 2.8554814438 3.1289010208 0.5739075558
S 1.0806239852 -1.6447066472 0.2795417763
C -0.1986003033 -1.8495453957 -1.0111771278
S -1.8663127416 -1.9393466866 -0.3295578637
P -2.0611183246 0.1004054987 0.2366652892
S -1.3995049649 1.4123758201 -1.0593011001
O -1.3466972557 0.2578193815 1.632494889
C -1.3534502842 -0.6906497907 2.7299009132
C -2.7475462753 -1.0881181431 3.1614427387
O -3.5976865429 0.2636749097 0.6009890044
C -4.5979660728 0.6019431986 -0.3749768058
C -4.8114949368 -0.5028723891 -1.3894476289
H 5.9980355427 0.6356102961 -0.0555923223
H 5.823585184 -0.5451247379 1.2484967613
H 6.5607512401 -1.0267185329 -0.2894232505
H 4.2230191932 -1.8611356239 -0.1560473965
H 4.3672257415 -0.6398179113 -1.4468220656
H 0.969226207 2.8582416099 -0.4503637812
H 0.814521081 3.0266714319 1.3178529322
H 3.4223446135 2.7327958886 -0.2680199175
H 2.8516349044 4.2129906689 0.5180366817
H 3.3280621832 2.8113048657 1.4996853877
H -0.0211640208 -2.7987277812 -1.5097166312
H -0.1206459069 -1.0137779435 -1.7123110239
H -0.7716377495 -1.5664063631 2.4276454802
H -0.8215364891 -0.1548285567 3.51755644
H -3.339829511 -0.2050936283 3.3863521036
H -3.2407569724 -1.6526897455 2.3730312102
H -2.6751609942 -1.7092929043 4.0489579248
H -5.4928970731 0.7777735986 0.2234834037
H -4.2957477128 1.5283588773 -0.8735740247
H -4.9896070378 -1.4503200313 -0.8875073397
H -5.6667680966 -0.2567657778 -2.0105765611
H -3.9330961165 -0.6008210325 -2.0253036447
*
