! wb97x-v def2-tzvp def2/J RIJCOSX DEFGRID2 scfconv7 GCP(DFT/TZ) printgap
%output
    printlevel normal
end
* xyz 0 1
C -1.8422449830167313 -1.4508060647657555 -5.7283683969693715e-05
C -0.5306962020795539 -0.7213556490994657 -4.2803743156381055e-05
C 0.6892253748095551 -1.4012551506185669 -5.5243891457926364e-05
C 1.9068593153841835 -0.7243049860489613 -2.3051209184847622e-05
C 1.916749146494685 0.6684212687372081 2.19285258333191e-05
C 0.717862242376335 1.3740151798929896 3.526740616651717e-05
C -0.4906538786527518 0.6815237371753694 8.33796317240555e-06
O -1.6442476384878506 1.4400632399803746 4.136738160989379e-05
H -1.679445181440132 -2.530532047932978 -0.00023590363724902022
H -2.443689257401916 -1.203973885667092 0.884163933692029
H -2.4438278078267963 -1.2037086243095296 -0.8841095022009074
H 0.6750953627521354 -2.4878866457422792 -9.553040490259586e-05
H 2.83822265722156 -1.2809469041876884 -3.11219605411083e-05
H 2.8567739584208844 1.211306448831494 4.6289359194209915e-05
H 0.7060595616608868 2.4593885154350517 7.157465559049257e-05
H -2.4150627858407927 0.8560437642522665 3.799456316062996e-05
*
