! r2scan-3c def2/J RI DEFGRID2 scfconv6 printgap
%output
    printlevel normal
end
* xyz 0 1
C -2.2762896674 -0.3325347955 -0.2635643407
C -1.2360777931 0.038381397 0.4614933086
C -0.0864014096 0.8072909983 -0.0828605083
Cl 1.4096626658 -0.2183270105 -0.0320902242
H -3.0935334476 -0.8861642131 0.1633064168
H -2.3524866434 -0.088654476 -1.3097010721
H -1.1653491873 -0.224158416 1.5075927525
H -0.2314058967 1.0808931462 -1.1256705277
H 0.1431551472 1.6828323651 0.5220334151
*
