! pbe def2-sv(p) def2/J RI DEFGRID1 loosescf d4 GCP(DFT/SV(P)) printgap
%output
    printlevel normal
end
* xyz 0 1
C 1.7445591124 -1.2361728364 -2.8481286763
C 3.1747110499 -1.0400297091 -2.3898906579
O 3.3123645473 -1.1799120736 -0.9644498591
P 2.6888532848 -0.1412685217 0.0662877863
S 2.8084976021 1.7495225075 -0.4191311099
O 3.5122357729 -0.439661024 1.3788402232
C 3.6421517346 -1.7714325617 1.9489741169
C 2.8618113327 -1.8638583895 3.2452367739
S 0.7488977726 -0.9064824725 0.4655502334
C 0.1599220587 0.6040553853 1.3050048398
S -1.5940049878 0.5070033962 1.6715598668
P -2.3749888989 0.7473004024 -0.3101484413
S -1.0616678506 1.3337245722 -1.6423356336
O -3.5460886208 1.7935943654 -0.2217986175
C -4.855796838 1.5510061281 0.3509829626
C -4.7952082636 1.2627057496 1.8356634968
O -3.1791643383 -0.5981631456 -0.5795431554
C -2.5886739294 -1.9099568617 -0.6340106382
C -2.06763123 -2.2235044773 -2.0220257249
H 1.7149681171 -1.2627989108 -3.9326233505
H 1.3460126716 -2.1671617235 -2.4523022046
H 1.1235562007 -0.4072207553 -2.5072894442
H 3.5393468074 -0.0492309999 -2.6778763291
H 3.8356433401 -1.810996191 -2.7888351208
H 3.2966731086 -2.5075117725 1.220538533
H 4.712253652 -1.8968767535 2.1189972886
H 1.7933312991 -1.7906864297 3.0572699257
H 3.0713099663 -2.8197164251 3.714762167
H 3.1603385786 -1.0634074899 3.916755224
H 0.3543616283 1.4536566744 0.6455560171
H 0.6763957232 0.7195102739 2.2558318704
H -5.3910557922 2.4786926686 0.1428150916
H -5.3166316275 0.7246865791 -0.1924512306
H -4.2706508018 0.3270548206 2.0216077801
H -4.2746177046 2.0618682852 2.356922476
H -5.806725414 1.1836579616 2.2218098469
H -1.7859160605 -1.976916369 0.1074137313
H -3.4039396374 -2.5801587677 -0.3547597877
H -2.8694662209 -2.1481998416 -2.7511809827
H -1.2838794242 -1.5212721733 -2.2954474977
H -1.6629766974 -3.2300589949 -2.0329332228
*
