! pbe def2-sv(p) def2/J RI DEFGRID1 loosescf d4 GCP(DFT/SV(P)) printgap
%output
    printlevel normal
end
* xyz 0 1
C 3.2299845395 1.3219370181 -2.2509769726
C 3.9539135831 0.1571360433 -1.6069344609
O 3.5577511964 -0.0688973505 -0.2436835956
P 2.0596750984 -0.1596948078 0.2832269107
S 1.2415688594 1.5928620179 0.6421639019
O 2.2104425997 -1.0705830496 1.5691602987
C 2.3235611954 -0.521958016 2.8974233281
C 3.6981105407 0.0698434496 3.124829929
S 1.2300331675 -1.5775431977 -1.0568273691
C -0.1790883654 -2.1972401332 -0.0745124183
S -1.0360296353 -0.9540238412 0.916263777
P -2.0062949892 0.1152369814 -0.6658575345
S -0.9496275724 0.8125973627 -2.1543684774
O -2.884882764 1.1802793344 0.1140656935
C -2.3597549686 2.393621471 0.6863980739
C -2.1037270495 2.2192503011 2.1696500818
O -3.0751167071 -0.9141197949 -1.1950358812
C -4.1079173895 -1.5138170302 -0.3716822847
C -5.4015334628 -0.7330895827 -0.4775330008
H 3.6225976824 1.4844086261 -3.2495597033
H 2.1614518312 1.1126428644 -2.3269849543
H 3.3613318319 2.2263069679 -1.660799801
H 5.0267763846 0.345854803 -1.5356562243
H 3.7752509063 -0.7643453414 -2.1691052372
H 1.5477253727 0.239388686 3.0286491368
H 2.1278318346 -1.3709393313 3.5530902884
H 3.8515706187 0.9037556914 2.440506697
H 3.774954906 0.4283094535 4.1463309574
H 4.4649092729 -0.6776859467 2.9409757565
H 0.1876121828 -2.9412863107 0.6289890755
H -0.8660950139 -2.6381684994 -0.7952780306
H -1.4429823014 2.6763074221 0.1596898606
H -3.1310895686 3.1431710844 0.5009062661
H -1.7908713796 3.1707526131 2.5866693397
H -3.0058619054 1.8798627678 2.6702474901
H -1.3104329056 1.4926061939 2.3315331828
H -4.2215904624 -2.5226977466 -0.7727056748
H -3.7561750443 -1.5599014444 0.6624563321
H -5.2714182922 0.2692354873 -0.078959838
H -5.7067249668 -0.6583405873 -1.5177277807
H -6.1730247663 -1.2473805462 0.0871410648
*
