! pbe def2-sv(p) def2/J RI DEFGRID1 loosescf d4 GCP(DFT/SV(P)) printgap
%output
    printlevel normal
end
* xyz 0 1
C 5.4870925913 -0.4094844481 -0.6663191486
C 4.1753615118 -0.0401732517 -1.3279470143
O 3.2976246107 0.6351537308 -0.3903960723
P 2.1962422438 -0.0921685414 0.4730758941
S 1.4427596171 1.1030356352 1.8222894209
O 2.957047526 -1.3529338839 1.0770907397
C 2.4410379472 -2.0797902942 2.2051555553
C 1.169376705 -2.8284800527 1.8623803628
S 0.9511391427 -1.0315680828 -1.0025291498
C 0.5319797991 0.4059732701 -2.0183661115
S -0.430306413 1.6668993825 -1.1312393405
P -1.9813994055 0.380739378 -0.4742672522
S -2.5613273628 -0.9350639393 -1.8114666219
O -3.1137246378 1.3797344311 0.0095967449
C -4.05551522 1.9705286432 -0.9097516468
C -5.3426875969 2.2424997756 -0.1575219941
O -1.4060637674 -0.164076365 0.894468613
C -2.2078275601 -0.4413523002 2.0651643154
C -3.1164989789 -1.6320671468 1.8442385868
H 5.9468485369 0.4744981768 -0.2329012397
H 5.3206204885 -1.1400158749 0.1203251131
H 6.1530632848 -0.8312197586 -1.4127455347
H 3.6670520002 -0.926034366 -1.7181362091
H 4.3288519279 0.6873205892 -2.127520592
H 3.2498552059 -2.7608365486 2.4731165772
H 2.2639854464 -1.3700994661 3.0197470472
H 0.378456033 -2.1192609036 1.6197050556
H 1.3287478936 -3.4755281056 1.0031063813
H 0.8601097379 -3.4261446857 2.7138473595
H -0.0607300148 0.0156352542 -2.8457673521
H 1.4317802226 0.9021012339 -2.3745390614
H -3.6132307515 2.8931908317 -1.292934319
H -4.2162799566 1.2743633068 -1.740201577
H -5.770317201 1.3120160429 0.2057264823
H -5.148125493 2.8962622633 0.6879262653
H -6.0489059196 2.7220168784 -0.8272458663
H -1.4643221985 -0.6281473006 2.8424745759
H -2.7781883046 0.4552294563 2.3139395076
H -3.6633218302 -1.8432686676 2.7576076255
H -3.8238289628 -1.4152778858 1.0443148738
H -2.5349374534 -2.5058889677 1.5596890969
*
