! wb97x-v def2-tzvp def2/J RIJCOSX DEFGRID2 scfconv7 GCP(DFT/TZ) printgap
%output
    printlevel normal
end
%cpcm
    smd true
    smdsolvent "water"
end
* xyz 0 1
C 2.4204567523677625 1.1592509885162077 2.7086860117149976e-05
C 1.271621424897635 1.9276289226371293 2.023466316355022e-05
C 3.909878982177879e-06 1.2991922827963092 4.192205671115802e-06
C -1.2716107315686873 1.9276349403640034 -1.0419599440754734e-05
C -2.4204495782849698 1.1592623048392408 -1.937356132023112e-05
C -2.3908351696496437 -0.2599007371251271 -1.4981165428477739e-06
C -1.1700755252828432 -0.8958872630040227 1.7521207800404566e-05
C 6.627759827877505e-07 -0.11304143478381898 2.2940931501117386e-06
C 1.1700731773724817 -0.8958927575456814 -1.7044296898947005e-05
C 2.3908357970091663 -0.2599119585322106 1.647682020189907e-06
C 0.7811202939302175 -2.356174143914816 -0.00011337365026273019
C -0.7811296013079921 -2.356170405266043 0.00011024759379326754
H 3.3862317596034757 1.6565221615800636 4.4176721735153364e-05
H 1.3377859383093325 3.011963665289312 2.993505913789221e-05
H -1.3377697708595373 3.0119700077107763 -1.6915320839021413e-05
H -3.3862222970975764 1.656537961219952 -3.968267331427836e-05
H -3.3234354812398474 -0.8166056532416595 7.272366976812846e-06
H 3.3234336273551697 -0.8166210764438989 -1.0119459609718327e-05
H 1.182991557997656 -2.870990321021063 -0.8788993564045293
H 1.1832822228142874 -2.871248067600506 0.8783846281131669
H -1.18329405813113 -2.8712401330714448 -0.8783890180416694
H -1.183003150653679 -2.8709870152680943 0.8788949618461231
*
