! pbe def2-sv(p) def2/J RI DEFGRID1 loosescf d4 GCP(DFT/SV(P)) printgap
%output
    printlevel normal
end
* xyz 0 1
C 2.5034161983 1.3222537165 3.0271007298
C 1.1946745388 1.3612636674 2.2663029482
O 1.3804712151 1.0459436714 0.875831881
P 1.7552100478 -0.4069865465 0.3807711504
S 1.1143683542 -1.9187473527 1.4591302811
O 3.3386860769 -0.251049792 0.2781864432
C 4.1984774243 -1.2909403382 -0.2233270741
C 4.7102111439 -2.1718540517 0.9007383053
S 1.210188062 -0.4095186141 -1.658489847
C -0.1999381322 -1.5545968832 -1.6276650994
S -1.8094300346 -0.8039520066 -2.0286399279
P -2.0175649627 0.5939579262 -0.4472287606
S -3.8323680011 1.2892014729 -0.216452119
O -0.8652831736 1.6597817403 -0.6916611701
C -0.8434468819 2.4845347786 -1.8736352519
C -1.5453581282 3.8063082686 -1.6330862285
O -1.3667709428 -0.0792398972 0.8370519829
C -2.205619147 -0.7399274042 1.8056438279
C -2.7062197588 -2.0795001972 1.3047229817
H 2.3374253331 1.6489644205 4.0489733449
H 2.8925806364 0.304633179 3.0375714666
H 3.2330208345 1.9716614739 2.5506340719
H 0.7559767118 2.3600782463 2.2537102142
H 0.4765547267 0.6533639761 2.6917060833
H 3.6561904322 -1.8802739652 -0.9687344593
H 5.0162812951 -0.7566572806 -0.7105966969
H 5.2276753159 -1.5693690598 1.6422459382
H 3.8847115242 -2.690334157 1.3832962555
H 5.3975985815 -2.906027194 0.4932231489
H -0.2389954048 -2.0265794311 -0.6429679915
H -0.0437657087 -2.2927021331 -2.4103617462
H 0.2186139428 2.6285460426 -2.0861388506
H -1.3075148898 1.9401569634 -2.7039208455
H -2.5969725875 3.6398248135 -1.4092953429
H -1.0885266247 4.3258185295 -0.7954825692
H -1.4647475053 4.4194038189 -2.5249318423
H -1.5645573959 -0.8624021598 2.680191582
H -3.0434180573 -0.0771936744 2.0438062401
H -3.3280221405 -2.5329155878 2.0699005841
H -3.3007287146 -1.9419067786 0.4018747364
H -1.8698608267 -2.7415008655 1.0922525414
*
