! r2scan-3c def2/J RI DEFGRID2 scfconv6 printgap
%output
    printlevel normal
end
* xyz 0 1
C 3.4979265075 -5.8103e-06 -1.83766e-05
C 2.8130885839 -1.2018090139 -1.37074e-05
C 1.4175679582 -1.226149272 1.7287e-06
C 0.6764892634 -2.4453952536 7.2816e-06
C -0.6764924241 -2.4453922195 9.9383e-06
C -1.4175713517 -1.2261463697 7.4947e-06
C -2.8130913949 -1.2018067118 4.8415e-06
C -3.4979273517 -2.5953e-06 -1.61653e-05
C -2.8130876305 1.2018066353 -2.07749e-05
C -1.4175723957 1.2261524203 -2.4999e-06
C -0.7076946936 2.1183e-06 4.2537e-06
C 0.7076922482 1.6178e-06 4.9458e-06
C 1.4175739101 1.2261480518 6.5664e-06
C 2.8130919785 1.2018047929 -3.0673e-06
C 0.6764931603 2.4453971363 1.61039e-05
C -0.6764876728 2.4453959502 1.22792e-05
H 4.5779833669 -5.3092e-06 -1.43696e-05
H 3.3561394734 -2.1357008102 -2.03524e-05
H 1.2285505524 -3.3743366163 1.37175e-05
H -1.2285489647 -3.3743355707 2.22618e-05
H -3.3561435202 -2.1356974518 2.7189e-06
H -4.5779876487 3.1858e-06 -2.19156e-05
H -3.3561463766 2.1356918124 -2.28167e-05
H 3.3561578219 2.1356850782 5.3713e-06
H 1.2285559098 3.3743383745 1.59925e-05
H -1.2285450626 3.3743397123 9.3549e-06
*
