! pbe def2-sv(p) def2/J RI DEFGRID1 loosescf d4 GCP(DFT/SV(P)) printgap
%output
    printlevel normal
end
* xyz 0 1
C 1.6010306842 2.8128173635 0.1776133639
C 2.4019413783 2.3205667951 1.3656095976
O 2.8946444035 0.9843868313 1.1709218681
P 1.9728192239 -0.3079837064 1.2948523007
S 0.6734813219 -0.3029919418 2.7539001923
O 3.0430632631 -1.4470622865 1.5183300916
C 4.1625529414 -1.6803145775 0.6238777673
C 3.9552410573 -2.9681304567 -0.1481903535
S 1.2389925743 -0.6118475518 -0.6806208373
C -0.1117971664 -1.7505243338 -0.2394177346
S -1.5930115135 -1.5549845834 -1.2660367125
P -2.0965377984 0.4814595848 -0.8975055569
S -3.9230519975 0.9809870778 -1.3936687898
O -0.9563350375 1.3559849836 -1.5732990539
C -1.0110313084 1.7508431633 -2.9545391674
C -0.6826837012 0.6015397461 -3.8874089163
O -1.6611359683 0.7493917652 0.6071727982
C -2.6275451215 0.7274359099 1.6723027636
C -3.0877938925 -0.6791896451 1.9981575454
H 0.665883056 2.2619531007 0.0920749862
H 1.3734506042 3.8655822695 0.3121836563
H 2.1704346478 2.6821414903 -0.7392415585
H 1.7977401943 2.3399956717 2.2785145057
H 3.3071637818 2.9127568922 1.510590746
H 4.2712152871 -0.8249163245 -0.0457566002
H 5.0325962633 -1.745730672 1.2788104966
H 3.1239604291 -2.8699506083 -0.8418345625
H 4.8570735118 -3.192731572 -0.7088342148
H 3.7497547683 -3.7838610832 0.5394738688
H -0.3634928443 -1.582151851 0.809510881
H 0.2060451945 -2.7767795689 -0.4084290379
H -2.0090832268 2.150433773 -3.163187992
H -0.270942617 2.5491460387 -3.0269396118
H -1.4719946594 -0.1481462706 -3.8544293817
H -0.5969439678 0.9780902045 -4.9015787327
H 0.256175559 0.1380988395 -3.5926907689
H -2.1010627755 1.1762064899 2.5160182475
H -3.4772241339 1.3522331235 1.3802345433
H -2.2473915082 -1.2863520936 2.3266274472
H -3.8217254354 -0.6365001827 2.796363637
H -3.5460457275 -1.1350054793 1.1204396446
*
