! wb97x-v def2-tzvp def2/J RIJCOSX DEFGRID2 scfconv7 GCP(DFT/TZ) printgap
%output
    printlevel normal
end
%cpcm
    smd true
    smdsolvent "water"
end
* xyz 0 1
C -1.7691057982619642 0.6872384235484456 -0.00016293200734334196
C -0.48223252302662134 -0.10025338128956712 -3.232582550828646e-05
O -0.47209528265366046 -1.345740504349228 -0.0006197833832753123
N 0.6427910585891763 0.6409683466382922 0.0005961010564094774
C 1.9904993525642205 0.09216423247602328 -0.0004236842483754229
H -1.8262720093438467 1.330365823475294 0.8838744754099103
H -1.8253410313821943 1.331767756761329 -0.8832440229839951
H -2.6159082172444292 0.0010255723088817773 -0.0011464526590884284
H 0.541985949315906 1.6455452920286284 -0.0002202146864848892
H 2.5381536231676542 0.41159954862141634 -0.893054076245432
H 1.9341728850162407 -0.9965003500220827 0.006864052653088787
H 2.5433819343198625 0.42324491108850315 0.8846157193577975
*
