! pbe def2-sv(p) def2/J RI DEFGRID1 loosescf d4 GCP(DFT/SV(P)) printgap
%output
    printlevel normal
end
* xyz 0 1
C 5.4142393471 -1.3619178631 -0.957969705
C 4.1757344826 -0.7877800306 -1.6147914727
O 3.6236745715 0.2967035215 -0.8276575145
P 2.5033288465 0.118719661 0.2702285185
S 2.1472535021 1.8064218624 1.1861106565
O 3.0545941645 -1.0596492388 1.1827414219
C 2.5541070672 -1.2870161935 2.513130732
C 1.114195084 -1.7575642175 2.5067996659
S 0.8991245612 -0.8069697611 -0.8059501548
C 0.2753746947 0.7062367708 -1.5773908306
S -0.8737016354 1.6351505183 -0.5253411937
P -2.4244227474 0.1995519265 -0.5715628097
S -2.732303168 -0.7048030496 -2.2742570789
O -3.7209266628 0.9695975928 -0.0840403498
C -3.8419649554 1.6026562897 1.2137996939
C -3.5585059046 3.0884481928 1.1222441583
O -1.9659423595 -0.7371327546 0.6430733419
C -2.3147095144 -2.134595981 0.6930976682
C -3.7902373528 -2.3275912853 0.977779719
H 5.1593012055 -1.8256737448 -0.0093207797
H 5.8495117667 -2.1075837834 -1.6160555878
H 6.1401121677 -0.5732767305 -0.7796907475
H 3.4069491728 -1.5537589649 -1.750020019
H 4.4140140738 -0.3277777958 -2.5756046791
H 3.2237515658 -2.0465812102 2.91891451
H 2.6539139699 -0.357573846 3.0821413862
H 0.4635386917 -0.958305201 2.15259375
H 1.0040902064 -2.6184586761 1.8512786569
H 0.8211047371 -2.0285364046 3.5161647525
H -0.2457261293 0.4042614546 -2.4860926983
H 1.1044243739 1.3767886991 -1.7965809029
H -4.877017373 1.4166512799 1.506078461
H -3.1620555935 1.1130964959 1.915138326
H -4.1924411089 3.5424453337 0.3656024865
H -3.7622173084 3.5479454483 2.0844433627
H -2.5172811007 3.2656648011 0.8592087591
H -2.0397781944 -2.5938182683 -0.2613490621
H -1.6900430637 -2.5355208637 1.4920278466
H -4.379830778 -1.8910344436 0.1716273641
H -4.0089987878 -3.3889342364 1.0385462822
H -4.0631018444 -1.8490301815 1.9148266778
*
