! r2scan-3c def2/J RI DEFGRID2 scfconv6 printgap
%output
    printlevel normal
end
* xyz 0 1
C 3.1960947399 0.2075733153 3.3547801958
C 1.887618776 -0.3097896439 2.7960899641
O 1.5957169793 0.2687504651 1.5049240519
P 2.4156725873 -0.1258455601 0.2090664814
S 3.1029229094 -1.9655372135 0.1618844177
O 3.5170694019 1.0167091752 0.1536283616
C 4.6925648687 0.9156815774 -0.6685075594
C 4.3631088158 0.9793546333 -2.1459578688
S 1.0183062692 0.4050623771 -1.2870369855
C 0.0705913674 -1.1384768875 -1.2060315753
S -1.0648957628 -1.1884641641 0.1957314735
P -2.4638725641 0.2255501912 -0.5912073681
S -2.7314809538 0.0490460675 -2.5232399696
O -2.0100189458 1.6804301294 -0.1996647044
C -2.2193489933 2.3286921094 1.0799082838
C -1.4652460618 1.6477366798 2.2015987545
O -3.748645199 0.0033728397 0.3119379831
C -4.5643372625 -1.1784984334 0.1624263254
C -5.9032863239 -0.9038188218 0.8160460375
H 3.3310961935 -0.1701164925 4.3633796864
H 4.0241125526 -0.1346296652 2.7351258786
H 3.1954442145 1.2941984 3.3704939736
H 1.0369847925 -0.0205502269 3.4142140772
H 1.9134873034 -1.3986971762 2.6883956373
H 5.3052337508 1.7620198695 -0.3551629668
H 5.2018934202 -0.0236229365 -0.4298420564
H 5.2836984198 1.0178351854 -2.7194811394
H 3.799940493 0.094757272 -2.4415081929
H 3.7644900229 1.8607335706 -2.3628224688
H 0.7560889452 -1.9799811091 -1.0986796796
H -0.5032492848 -1.2064558292 -2.13121628
H -1.852164331 3.3411974277 0.9048227181
H -3.2918266527 2.3483946535 1.280593831
H -1.5796047758 2.2306598089 3.1103086834
H -1.8579706322 0.6461207341 2.3677136756
H -0.4094194575 1.5748488351 1.9516562042
H -4.6740803063 -1.3927183221 -0.9056531573
H -4.0453899071 -2.0117157016 0.6432593197
H -6.3928751115 -0.0662455113 0.327107712
H -6.5292019677 -1.7853999724 0.7255538906
H -5.7642491494 -0.668168703 1.8670097016
*
