! pbe def2-sv(p) def2/J RI DEFGRID1 loosescf d4 GCP(DFT/SV(P)) printgap
%output
    printlevel normal
end
* xyz 0 1
C 0.9663551222 1.8344788946 2.9541339497
C 2.0717844689 1.5566866568 1.956632449
O 2.1826817969 0.1172230689 1.8043061713
P 2.7217464976 -0.5687072093 0.4934048579
S 2.8074424393 -2.5136848964 0.6719043029
O 4.1051412755 0.1833700325 0.272078639
C 5.1470684221 -0.3248244953 -0.5816519358
C 4.7311722628 -0.3674701358 -2.0375690407
S 1.4816540739 0.1652642192 -1.079714268
C 0.136508872 -1.0110325258 -0.8173129254
S -0.8714185121 -0.6299325902 0.6435951664
P -2.6454015999 0.0677414106 -0.2914021961
S -2.7347801144 -0.1772760373 -2.2407005686
O -2.9128446714 1.5607950005 0.1925104315
C -2.4953478204 2.7067343076 -0.5685961773
C -1.0067389849 2.9538294229 -0.4399966512
O -3.6522387836 -0.7422003802 0.6219740336
C -5.0201380413 -0.3498765299 0.8714884693
C -5.8473175204 -0.3078274039 -0.396818672
H 0.0237979729 1.4314876643 2.59118475
H 1.1967178132 1.3619232246 3.9044932603
H 0.8759441796 2.9065570062 3.0977892128
H 3.036916505 1.9227788045 2.3110478193
H 1.8551183255 1.9973384124 0.9788271257
H 5.9737046519 0.3681399774 -0.4185026444
H 5.4226556704 -1.323857368 -0.2306083918
H 3.9569694769 -1.1194260655 -2.1828294153
H 4.3447981024 0.5992626843 -2.3505409451
H 5.5903832105 -0.627984145 -2.6472488784
H 0.5682980771 -2.0015565387 -0.6703930048
H -0.4998130818 -0.9820039959 -1.7057429342
H -2.7718717041 2.5488579286 -1.6162784323
H -3.0773414129 3.5287546441 -0.1494558484
H -0.4507768964 2.1418296178 -0.9079268421
H -0.7520399347 3.881855485 -0.9413831606
H -0.7261451622 3.0211257755 0.6077198555
H -5.3809286316 -1.1164111474 1.5593039797
H -5.0140318661 0.6226868742 1.3680382671
H -5.800177675 -1.2650710089 -0.9109673534
H -6.8799621019 -0.0847809711 -0.1476325211
H -5.4688731311 0.4620936171 -1.0680398084
*
