! pbe def2-sv(p) def2/J RI DEFGRID1 loosescf d4 GCP(DFT/SV(P)) printgap
%output
    printlevel normal
end
* xyz 0 1
C 3.2428650522 -3.8104127648 0.4107408169
C 2.8275368663 -2.3896283429 0.7342719893
O 2.3734172049 -1.771242015 -0.4851477349
C 2.0968671377 -0.4895762708 -0.467762596
O 2.1892697898 0.2275849994 0.5096215926
C 1.67542122 0.0285653416 -1.830021136
C 0.3778893425 0.8360569563 -1.7273742279
H 0.2712685862 1.4801392085 -2.6032932924
C 0.3569975614 1.6881529498 -0.4744831579
O -0.449634965 1.504831592 0.4222482826
O 1.22956766 2.6475875355 -0.50881707
C 1.3778698346 3.470878361 0.6690649041
C 2.4015206928 4.5434694561 0.3586063321
S -1.1039350379 -0.2239835287 -1.7386125177
P -1.6710128045 -0.5930217728 0.2860041946
S -0.4870983488 -1.1414228098 1.7469849626
O -2.8846540842 0.3968077715 0.6398038103
C -2.888726435 1.4082419663 1.6442253898
O -2.5246847601 -1.912744707 -0.0335862638
C -3.6315094028 -1.9720255371 -0.947869226
H 3.587883681 -4.2950563505 1.3176894348
H 2.3957570752 -4.3602658879 0.0120256732
H 4.0418839531 -3.8078999858 -0.3246751618
H 3.657874932 -1.7963815328 1.1298203566
H 2.0066840564 -2.3555255164 1.4588300446
H 1.5505008971 -0.8039992917 -2.520549269
H 2.4702345899 0.6885388701 -2.1843077217
H 0.4008195566 3.8943404169 0.9200561745
H 1.6980212671 2.8168667845 1.486143946
H 2.5267489061 5.1775026539 1.2297895884
H 3.3539900823 4.0858700869 0.1103247147
H 2.0685197817 5.1468015372 -0.4803781436
H -3.8698153159 1.3630826103 2.1131202899
H -2.7260318355 2.3784963958 1.1782746869
H -2.1063660555 1.2168249364 2.3796047469
H -4.0976891722 -2.9369127722 -0.7639241544
H -3.2691226861 -1.9105692301 -1.9736925779
H -4.3306831864 -1.162547624 -0.7461290171
*
