! pbe def2-sv(p) def2/J RI DEFGRID1 loosescf d4 GCP(DFT/SV(P)) printgap
%output
    printlevel normal
end
* xyz 0 1
C 4.6194668993 0.4748169926 -1.5067585869
C 4.5548679069 0.1421744312 -0.0294715953
O 3.3562937037 -0.5668476556 0.3077224231
P 1.91596255 0.1302634835 0.2554071063
S 1.9676124432 1.9731397604 0.9278307354
O 1.0609375857 -0.9279319903 1.0664054306
C 0.8754995906 -0.7904749718 2.4888566428
C 2.1670279908 -0.9826297886 3.2544556773
S 1.2782404261 -0.2453095054 -1.7420771035
C 0.0262811375 -1.5613813839 -1.6053424582
S -1.6615337836 -1.0279832475 -2.0319901116
P -2.1638295525 0.0002354103 -0.2464906573
S -3.9688247425 0.751718143 -0.2182405343
O -0.9492702839 1.0176226987 -0.0453700381
C -0.9991452055 2.2694663137 -0.7655440852
C -1.4088367534 3.3928758399 0.1627096353
O -1.8027739416 -0.9762331717 0.9501702784
C -2.8111277422 -1.8382615807 1.5143543789
C -3.1055987381 -3.0250276637 0.6184374517
H 4.5228895874 -0.4271874178 -2.1050532797
H 3.8065227988 1.1538382332 -1.7675222769
H 5.5661158299 0.9570763595 -1.7279077355
H 4.5959750474 1.0580194429 0.5701027699
H 5.3582721164 -0.5327396668 0.2683830435
H 0.4435602275 0.1955329891 2.6866121579
H 0.1452085959 -1.5636579903 2.730115822
H 1.953163839 -0.991125403 4.3187510091
H 2.6364639658 -1.920806571 2.9700420194
H 2.8531174583 -0.1647722646 3.0391213288
H 0.0420485273 -1.9659482769 -0.5984233492
H 0.2836092109 -2.3112030321 -2.3484548839
H 0.0090987659 2.4296471282 -1.1547396989
H -1.6990273775 2.1761276551 -1.6031621886
H -1.4155037362 4.3262178506 -0.3905448205
H -2.402918442 3.2044308486 0.5626087446
H -0.7000851448 3.4671475412 0.9836087702
H -2.3933239441 -2.1489358309 2.4731485069
H -3.7180035652 -1.2484938434 1.6823202808
H -3.8117636705 -3.6807484737 1.1178407131
H -3.5437016226 -2.6841778007 -0.3188630998
H -2.1950713032 -3.5781131694 0.402532664
*
