! r2scan-3c def2/J RI DEFGRID2 scfconv6 printgap
%output
    printlevel normal
end
* xyz 0 1
C 5.53601692 -1.8941278453 -1.4510303901
C 4.6930442042 -0.7952459856 -0.824397561
O 3.3952201855 -1.2875662016 -0.4371892773
C 2.4584328265 -1.3699043115 -1.3629552561
O 2.6061281869 -1.0764492938 -2.5265413593
C 1.149130807 -1.8712432654 -0.7746477741
C 0.1566189577 -0.7034286505 -0.7561511766
H -0.0216230205 -0.3499487226 -1.7755886253
C 0.7825688023 0.4261785907 0.040121491
O 1.6737533711 1.1051985188 -0.4168193357
O 0.3155668334 0.5100522214 1.2671668122
C 0.9263123488 1.461299893 2.1621050788
C 2.0838936176 0.8136127467 2.9025628606
S -1.4163210266 -1.266258495 -0.0317621172
P -2.3311325798 0.6292810291 0.2498221484
S -1.621994611 2.1028232255 -0.8333536625
O -3.8755838371 0.3001592258 -0.0068109233
C -4.3641184883 -0.0233429868 -1.3134766698
O -2.366144654 0.9540215992 1.7929239356
C -2.8844150984 0.0120606555 2.7576206234
H 5.0812281201 -2.2289744455 -2.3802451044
H 6.5263747437 -1.505608713 -1.6636195981
H 5.6183589547 -2.736670013 -0.7699972495
H 4.5494498967 0.0366558548 -1.519976461
H 5.1344488827 -0.4359792626 0.1054439032
H 1.3193912954 -2.2404411967 0.2362960382
H 0.7517398473 -2.6664975362 -1.4053912089
H 1.2599406824 2.3201896754 1.5727497074
H 0.1236614164 1.759716456 2.8369732074
H 2.8464797625 0.497705803 2.1936246281
H 2.5153568776 1.5347077425 3.588546505
H 1.7366431544 -0.0515176241 3.4601334927
H -4.0039753919 0.7057421935 -2.0410448524
H -5.4477234098 0.0189984464 -1.2392603698
H -4.0361446917 -1.0241489486 -1.5938368573
H -2.3576710829 -0.9376777422 2.666575349
H -3.9502714972 -0.1332203835 2.5954842033
H -2.6991249159 0.4672896444 3.7268575288
*
