! r2scan-3c def2/J RI DEFGRID2 scfconv6 printgap
%output
    printlevel normal
end
%cpcm
    smd true
    smdsolvent "water"
end
* xyz 0 1
C 4.5459767596 -2.2057720538 0.5827506987
C 4.7337116173 -0.7130457581 0.4052671355
O 3.5359265371 0.0207468354 0.7168197217
P 2.2356709423 -0.0422360324 -0.2010328901
S 2.6439572472 -0.0865643525 -2.1231710503
O 1.4340446505 1.2146809379 0.3519270452
C 1.7609199259 2.5616630603 -0.0539818927
C 0.8079123541 3.0449868901 -1.1295888717
S 1.0877146362 -1.5880513563 0.6283705022
C -0.1104340588 -1.7953088939 -0.7295525109
S -0.803154124 -0.2487671028 -1.37455907
P -2.1265916531 0.2580207027 0.1916569648
S -3.1323481449 1.9235492066 -0.0260727785
O -1.1310845555 0.1959756041 1.4207180933
C -1.4152866838 0.8462692759 2.6739639865
C -2.5342305833 0.1557667659 3.4246249732
O -3.0144823673 -1.0477763658 0.4346137019
C -4.278189552 -1.2384764141 -0.2208351715
C -4.1155245268 -1.5175312704 -1.7017826079
H 3.8449668592 -2.5821503113 -0.1608861279
H 5.5004990751 -2.7053719183 0.4523253249
H 4.1552319671 -2.4223801209 1.5736964944
H 5.0218987898 -0.4812588323 -0.6252296424
H 5.4742537473 -0.3121938883 1.0985906841
H 1.6696152406 3.157286264 0.8560761611
H 2.7953318945 2.5896195222 -0.4084775862
H 0.9144555583 2.4416190163 -2.029138968
H -0.2219243697 2.9713569571 -0.7848204724
H 1.0289380844 4.0805022152 -1.3672188865
H -0.9040396881 -2.4274966635 -0.3384219681
H 0.3874999064 -2.2586044652 -1.5795255963
H -0.4683892745 0.7924979831 3.213593406
H -1.6702667609 1.8917733159 2.4717464142
H -2.3150853647 -0.903262371 3.5323946508
H -2.6387724832 0.6063504519 4.4066742629
H -3.470790476 0.27104465 2.8808818961
H -4.7240513867 -2.0847877113 0.303591388
H -4.8865390082 -0.3414096933 -0.0670250893
H -3.4696749987 -2.3768565152 -1.8624844188
H -5.0894182768 -1.7154909798 -2.1379258475
H -3.6774374111 -0.6512914316 -2.1972231518
*
