! pbe def2-sv(p) def2/J RI DEFGRID1 loosescf d4 GCP(DFT/SV(P)) printgap
%output
    printlevel normal
end
* xyz 0 1
C 4.4309075641 -0.6959160881 -1.6795132379
C 3.1531276265 0.0753399653 -1.9275772023
O 2.6591528405 0.7418134893 -0.7414009292
P 2.3541220559 0.0860007238 0.6583992324
S 1.2015782108 1.2417126802 1.7372394528
O 3.8046803226 -0.1501274103 1.2599938853
C 4.045651298 -0.3430829296 2.6650092268
C 3.4496280455 -1.6366150812 3.1816915327
S 1.6112115083 -1.8783114755 0.2758673133
C -0.1234860412 -1.4363455641 0.1296980612
S -0.3875507723 -0.4310514897 -1.3870059378
P -2.2821294707 0.3288135685 -0.9203726855
S -3.0829989098 1.5310866169 -2.2417362921
O -2.1807751278 0.9291713376 0.5561375026
C -2.0958780424 2.3387296114 0.82960413
C -3.4370578846 2.8475934834 1.3176976278
O -3.0235779994 -1.0463706749 -0.6504591519
C -4.4451691863 -1.0647774311 -0.3750826721
C -4.9450315933 -2.4753428967 -0.605631309
H 4.7965118688 -1.0846073945 -2.6249372604
H 5.1835067208 -0.0452635997 -1.2419258205
H 4.2457033373 -1.527265686 -1.0022372379
H 2.3589796459 -0.5780013224 -2.301676004
H 3.3052222757 0.8982200481 -2.6275531979
H 5.1337444564 -0.3418204232 2.7423290562
H 3.6341250071 0.5140072225 3.2074409101
H 3.7779548429 -1.7972850263 4.2035947263
H 2.3626372231 -1.5793180893 3.1666021272
H 3.7659682595 -2.4733850953 2.564471788
H -0.4270492314 -0.8429376584 0.993456661
H -0.6874848772 -2.3611634607 0.048313152
H -1.3173565544 2.441794 1.5886914635
H -1.7890063905 2.8651066643 -0.0789683342
H -3.3439792239 3.8956428895 1.5823821991
H -4.1806134185 2.7438120216 0.5297382247
H -3.7565529989 2.2831702962 2.1890065298
H -4.592905086 -0.7477380877 0.6599514855
H -4.9354627758 -0.3491806209 -1.043711228
H -4.4339200201 -3.1665548708 0.0579952202
H -6.0115331712 -2.5098015983 -0.4083210348
H -4.7609599548 -2.7721385666 -1.6343083356
*
