! pbe def2-sv(p) def2/J RI DEFGRID1 loosescf d4 GCP(DFT/SV(P)) printgap
%output
    printlevel normal
end
* xyz 0 1
C 4.6635675846 -2.9994934829 -1.1572521677
C 3.3166821942 -2.3132511201 -1.0627975833
O 3.5549692449 -0.9175952981 -0.7481002938
P 2.4021598888 0.0362947011 -0.2230112064
S 3.0853194099 1.8387533091 0.0843982491
O 1.7629603481 -0.7043826316 1.0468656672
C 2.2025526622 -0.4343356522 2.3975535108
C 1.1909358923 0.4309039363 3.1211486511
S 0.8454798089 -0.2292754912 -1.6267225811
C 0.0041908464 1.344001931 -1.2994041104
S -0.8183510716 1.3910325362 0.3029072572
P -2.6053119613 0.3202313379 -0.2025824393
S -2.9371401221 0.1543231108 -2.1261848897
O -3.8045091502 1.0822208226 0.4725612245
C -4.1173015647 1.1025538399 1.8872052704
C -3.0482321016 1.793373906 2.7065330895
O -2.5544352549 -1.0057981944 0.679526631
C -1.5209307488 -2.0030846879 0.638972031
C -1.5858831126 -2.8504407739 -0.6158937707
H 5.2693101202 -2.5226187241 -1.9223260037
H 5.1869051057 -2.933500859 -0.2076022706
H 4.5141995724 -4.042889629 -1.4152776699
H 2.6957311675 -2.7490154486 -0.2760068844
H 2.7764377509 -2.3549661869 -2.0119254551
H 2.2974889059 -1.4154287099 2.8662629195
H 3.1798535236 0.0560973652 2.3658648531
H 0.2160304932 -0.0483281287 3.1165648837
H 1.5154400459 0.5770768931 4.1461681654
H 1.1080186851 1.3986446578 2.6311212405
H -0.7353617149 1.4661595211 -2.0918126772
H 0.7383525388 2.1492804183 -1.301358358
H -5.0632302219 1.6450639852 1.922974593
H -4.2658523843 0.0736576108 2.2191339231
H -2.8668350186 2.7956053751 2.3271656227
H -3.376626557 1.8557724646 3.7393090111
H -2.1152973213 1.2340169589 2.6647721456
H -0.5470305643 -1.5121650482 0.7276882636
H -1.7097024722 -2.6046364477 1.5306198503
H -2.5811199767 -3.2716416891 -0.7323166682
H -1.3587494211 -2.2503814374 -1.4949954928
H -0.861215143 -3.6550028806 -0.5431870927
*
