! pbe def2-sv(p) def2/J RI DEFGRID1 loosescf d4 GCP(DFT/SV(P)) printgap
%output
    printlevel normal
end
* xyz 0 1
C 5.4516615685 -0.2132261589 -0.1304072358
C 4.3623919748 0.2556798227 -1.075797714
O 3.1591347943 -0.5216281541 -0.9053760202
P 1.9804263057 -0.0656408446 0.0581563343
S 2.4601560347 0.3066843278 1.9250520556
O 0.9307903323 -1.2386688863 -0.1489489318
C 0.9769255498 -2.4348811522 0.657000212
C 2.2303447754 -3.2443263793 0.4053603212
S 1.1167703254 1.5010375635 -1.0431247914
C 0.0538037566 2.1988685589 0.2578724614
S -0.9850481646 1.0029862607 1.1379566215
P -2.0717292049 -0.0972679758 -0.3501962986
S -1.4848551665 -0.2774712641 -2.2065910118
O -3.5626359899 0.4656075294 -0.2287975412
C -4.1158065442 1.4263175354 -1.1378105452
C -3.3996318723 2.7601395043 -1.0668603201
O -2.1894304627 -1.5090845163 0.3437928341
C -2.4002937126 -1.788319405 1.7492960605
C -3.6565573126 -1.1516411397 2.3027126121
H 6.3577176923 0.3517987683 -0.3237757093
H 5.1490827215 -0.0549381117 0.9024697401
H 5.6489833143 -1.2708856784 -0.2821219286
H 4.6438743882 0.0967623061 -2.1185185064
H 4.1342497291 1.3139100661 -0.9187788902
H 0.9130825979 -2.1401747305 1.7103095369
H 0.0763898318 -2.976847482 0.3636271543
H 2.1625771026 -4.1841451278 0.9444724896
H 2.3422777098 -3.4406531763 -0.6579472741
H 3.1019343154 -2.6939275881 0.7571638087
H -0.5530251559 2.9623491317 -0.2225743258
H 0.6788867566 2.6322487367 1.0389443347
H -4.0612958814 1.0178082649 -2.1516328311
H -5.1575056949 1.5103334324 -0.8251974568
H -3.9386197075 3.4926591976 -1.6591444465
H -3.340295808 3.1032357857 -0.0365513773
H -2.3955356771 2.6525461245 -1.4772851367
H -2.4588210637 -2.8778177794 1.7777520423
H -1.5202602786 -1.4509351253 2.3032703265
H -4.5158873961 -1.4259799754 1.6968098998
H -3.8063394185 -1.4998506387 3.3201439479
H -3.5591878173 -0.068585504 2.3097521477
*
