! pbe def2-sv(p) def2/J RI DEFGRID1 loosescf d4 GCP(DFT/SV(P)) printgap
%output
    printlevel normal
end
* xyz 0 1
C 3.1420447304 -1.2503655885 -2.4906311693
C 3.3380721287 0.2329218616 -2.2632286153
O 2.3514404012 0.7877941842 -1.3605427085
P 2.1585567518 0.3955956679 0.1494918249
S 1.2052735124 1.7648612717 1.1762519027
O 3.6778953201 0.192700722 0.5983337503
C 4.1169777902 0.2431665226 1.9657420729
C 3.608828687 -0.9258998469 2.7851259775
S 1.3076457028 -1.5592522547 0.2355674917
C 0.0135543124 -1.2920361801 1.4816185341
S -1.6829548863 -1.516186743 0.8729520924
P -1.9382488099 0.1743495363 -0.3871775745
S -0.6770246512 0.4194436425 -1.8662687007
O -2.019624314 1.4530728284 0.5229810632
C -2.6279921951 1.5584381276 1.8339601241
C -4.0990564505 1.2054989006 1.8316642601
O -3.43547768 -0.0314803273 -0.8744173896
C -3.7732821234 -1.0008867239 -1.8859543723
C -5.0878693732 -0.584447692 -2.5140696763
H 3.3404457134 -1.8048549016 -1.5744495086
H 2.1194067062 -1.4459116072 -2.8062296926
H 3.8264681069 -1.5855814314 -3.2635598929
H 3.1767853043 0.8030996624 -3.1794697718
H 4.3293347148 0.4443121976 -1.8566434976
H 5.2050763704 0.2337340003 1.8854323237
H 3.784401305 1.1915888139 2.3993384541
H 4.0997971304 -0.9201137535 3.752953318
H 2.5347090847 -0.8364270146 2.9355343619
H 3.8197963169 -1.8641837976 2.2787963069
H 0.1288697051 -0.2792729617 1.8790220896
H 0.1324463698 -2.0466417993 2.2549616445
H -2.0729267518 0.9185089743 2.5246078838
H -2.4580474477 2.604175128 2.0956082361
H -4.2346689127 0.1467681131 1.623040629
H -4.5145586259 1.4311628602 2.8089663992
H -4.622205316 1.7842853985 1.0751862014
H -2.9662551703 -1.0291410912 -2.6261724307
H -3.8521496482 -1.9782089536 -1.4029176271
H -5.3660862287 -1.3109688567 -3.2703128699
H -5.863887451 -0.5372441091 -1.755863259
H -4.9863589837 0.3935777218 -2.9763943473
*
