! pbe def2-sv(p) def2/J RI DEFGRID1 loosescf d4 GCP(DFT/SV(P)) printgap
%output
    printlevel normal
end
* xyz 0 1
C 2.1074019921 -0.7827046133 -2.4493965514
C 3.3850635546 -0.7419746024 -1.6367139418
O 3.1996247471 -1.304455174 -0.3286653821
P 2.5388168028 -0.4970450819 0.8758593823
S 2.9862009349 1.4188430413 0.9039388179
O 2.9639429115 -1.3896012821 2.1126586383
C 4.2861766293 -1.9354368903 2.3090543162
C 5.341614233 -0.8563472321 2.437443289
S 0.4732233525 -0.9605494599 0.9503039698
C -0.2326518834 0.7005278999 0.7745327883
S -0.8137106985 1.0902497483 -0.9040818949
P -2.8300446505 0.4546714337 -0.6493075403
S -4.0111405798 0.6370208703 -2.1986355056
O -3.3033402409 1.1975486653 0.6770642172
C -3.9873735434 2.4616220793 0.6214540946
C -3.0715225674 3.5915617897 0.1930685657
O -2.7155691887 -0.9921543001 -0.0069822481
C -2.8195818343 -2.178878709 -0.8143587914
C -1.6328851695 -2.3475655786 -1.741750558
H 1.7070636877 -1.792928959 -2.4722006104
H 1.3630764406 -0.1144310734 -2.0183931811
H 2.3161451614 -0.4577775932 -3.4634424595
H 3.7439373463 0.2871546459 -1.5284045176
H 4.1641313676 -1.3605137825 -2.0851458432
H 4.1877891498 -2.510003119 3.2315862918
H 4.5100623561 -2.6050167314 1.4759223547
H 5.0797266168 -0.1637504454 3.2340313907
H 6.3008413989 -1.3132210505 2.6596487657
H 5.422208885 -0.2957224148 1.506932789
H 0.5429371168 1.4327674822 1.011733194
H -1.0731628984 0.7698295124 1.4599026934
H -4.8302625956 2.3697798123 -0.0709156344
H -4.3575529204 2.6049934949 1.6377046032
H -2.1987597782 3.6449904871 0.8394195255
H -2.7410808965 3.4345473808 -0.8333745992
H -3.6136411099 4.5302598657 0.2471298527
H -2.8780999218 -2.9867945657 -0.0840971643
H -3.7497098406 -2.1251516715 -1.3892039452
H -0.7095847124 -2.3680786277 -1.1685447186
H -1.7380356517 -3.2773483711 -2.2915409879
H -1.596327313 -1.5197221365 -2.4500154356
*
