! pbe def2-sv(p) def2/J RI DEFGRID1 loosescf d4 GCP(DFT/SV(P)) printgap
%output
    printlevel normal
end
* xyz 0 1
C 4.0330550106 -2.865663555 0.5188986421
C 2.5188939313 -2.8125775749 0.3986494348
O 2.1211498502 -2.0440295132 -0.7524340531
C 2.0479932602 -0.735945103 -0.6479650731
O 2.262672393 -0.0979609932 0.3625684915
C 1.6536323012 -0.0817808216 -1.9599204896
C 0.4121944068 0.7918800377 -1.7606286229
H 0.2892173982 1.4632766115 -2.6138275051
C 0.5158723736 1.6116355112 -0.4899176684
O -0.2758006416 1.4840176247 0.4283286443
O 1.4931733603 2.4656123418 -0.5316149918
C 1.7574546254 3.2692261141 0.6396644123
C 0.853186696 4.4892420569 0.6845364109
S -1.1203773852 -0.1928009077 -1.7032083602
P -1.6328874255 -0.5119265082 0.3465513518
S -0.4494047182 -1.1114150119 1.7890088893
O -2.7775440592 0.5504104889 0.7188364468
C -2.6911689974 1.5806744895 1.6998538241
O -2.5687504926 -1.7851572043 0.0692137886
C -3.7054694248 -1.7935144923 -0.8092377951
H 4.300210191 -3.5095406569 1.3500324461
H 4.4669570323 -3.2588179738 -0.3964132398
H 4.427748471 -1.8693645369 0.7043978554
H 2.0651735933 -2.3669213853 1.2895518759
H 2.0946030045 -3.8008899344 0.2215173512
H 1.4613869561 -0.8452384317 -2.7117512733
H 2.4827734318 0.5561142677 -2.2725826226
H 1.6250448715 2.6384043314 1.5228634137
H 2.8047665384 3.550333322 0.532539423
H 0.963715733 5.0710819324 -0.2262296447
H -0.1857724386 4.1865430955 0.791737118
H 1.1274781767 5.1019890342 1.5366594069
H -2.4807864038 2.5289717698 1.2081359428
H -1.9042060107 1.3546206241 2.4202045306
H -3.6606699675 1.6087644539 2.1934165015
H -4.2252670461 -2.7228763827 -0.5894352331
H -3.3726378811 -1.7767372069 -1.8467171676
H -4.345871618 -0.9373881913 -0.605090157
*
