! pbe def2-sv(p) def2/J RI DEFGRID1 loosescf d4 GCP(DFT/SV(P)) printgap
%output
    printlevel normal
end
* xyz 0 1
C 5.3323745602 -0.1658145108 -1.4362683692
C 4.5304659456 -0.5783881011 -0.2175956997
O 3.5629828449 0.4255317189 0.1457008951
P 2.0921128561 0.5076340235 -0.4623105634
S 1.9376817961 0.7749494159 -2.3928626258
O 1.5105058469 1.7009143167 0.3806361114
C 1.6311756313 1.7557098945 1.8265055009
C 0.5701389387 2.7019898716 2.3459943453
S 1.2490910867 -1.303231069 0.2782752302
C 0.1533208358 -1.766572898 -1.0980842899
S -1.5416877262 -2.0714250966 -0.5589609323
P -2.0052359413 -0.0957915838 0.0850564773
S -1.3717134951 1.3459179275 -1.0796974251
O -1.493292834 0.0428806153 1.5658164662
C -1.9110337887 -0.8714579984 2.6202653108
C -0.7261512839 -1.1404292168 3.5239213587
O -3.5778647851 -0.1747275973 0.2914255236
C -4.4828113839 -0.2505084077 -0.8293223965
C -5.8823876217 0.0063443989 -0.3092532119
H 6.0842850483 -0.9208591887 -1.6413264629
H 4.6812931658 -0.0663770468 -2.3020148445
H 5.8195183603 0.788920746 -1.2581810349
H 5.1671038854 -0.6640576595 0.6651991836
H 4.0138442681 -1.5268342727 -0.3888057996
H 1.4973264047 0.7450169997 2.2240334816
H 2.6379197585 2.107774891 2.0588449574
H -0.4181057388 2.3305588233 2.085557531
H 0.6569681738 2.7794191154 3.4249987053
H 0.6975369307 3.6842448122 1.8998095516
H 0.5089683606 -2.7027744784 -1.5209505684
H 0.1762372977 -0.9634315552 -1.8407443067
H -2.725517979 -0.3802943679 3.1543068164
H -2.2797332189 -1.7928054622 2.1613748019
H 0.0736528388 -1.61994364 2.9644026465
H -0.3571676655 -0.2096804375 3.945128783
H -1.0406372291 -1.797543373 4.3282481342
H -4.1817369275 0.4974440566 -1.5700564641
H -4.3961882421 -1.2467322336 -1.2713807125
H -6.1406632338 -0.7355426937 0.4405449751
H -5.9387560356 0.9949332168 0.1374886868
H -6.5849268213 -0.0547881072 -1.1337593427
*
