  17
        -25.86120986
 C          1.2361550971       -1.6942913183        0.5174057820
 O          0.8979568810       -0.9153102387       -0.6374429390
 C         -0.0950362159        0.0199456964       -0.4334915160
 O          0.2827163570        1.0267252448        0.4603616542
 C          1.2948517197        1.8928157796       -0.0384989438
 O         -1.2308712833       -0.5970114993        0.0545557611
 C         -2.3925147984        0.2276411309        0.0612750917
 H          0.4142918386       -2.3652419962        0.7681859820
 H          1.4497302398       -1.0390461170        1.3635577559
 H          2.1200819665       -2.2548194953        0.2290480391
 H         -0.2771951479        0.4630251284       -1.4376999879
 H          1.5045031919        2.5867341916        0.7699464697
 H          0.9306753216        2.4286442516       -0.9196578862
 H          2.1911284116        1.3268575250       -0.3010728666
 H         -2.6245675364        0.5590865016       -0.9546402190
 H         -2.2428902456        1.0919340678        0.7102723939
 H         -3.1867710766       -0.4050618968        0.4456155362
