! pbe def2-sv(p) def2/J RI DEFGRID1 loosescf d4 GCP(DFT/SV(P)) printgap
%output
    printlevel normal
end
* xyz 0 1
C 1.2376153182 0.7512960627 3.1334827024
C 2.4277315763 -0.1588740341 2.9056818269
O 2.979332772 0.0072714499 1.5889774602
P 2.2377592607 -0.5351902091 0.2918520287
S 1.4122819945 -2.3047107128 0.5181482819
O 3.3632137924 -0.4587264346 -0.8222427452
C 4.2475401173 -1.5649404872 -1.0950411129
C 5.2324613513 -1.7874847259 0.0331726179
S 1.0889224334 1.1241995521 -0.3253183306
C 0.4570053929 0.4724323169 -1.8881700746
S -0.964148409 -0.668078771 -1.7361480764
P -2.3106611318 0.4803066909 -0.5860665102
S -4.2135590329 0.0767713772 -0.8323543669
O -1.7999398941 1.9247050189 -0.9847210444
C -2.3269910416 3.12175037 -0.364407967
C -3.4637310173 3.6976286479 -1.1847287489
O -1.8432487925 0.3757272788 0.9424628501
C -2.4859100123 -0.5212462958 1.8622451533
C -2.1826362822 -1.970899743 1.5445428782
H 1.5111240583 1.7849132955 2.9377110304
H 0.4237034047 0.4761634087 2.463444558
H 0.900635586 0.6541527908 4.1606832245
H 2.1423375871 -1.2087635663 3.0328420589
H 3.254690691 0.0850072547 3.5738313501
H 3.6421616839 -2.4622100233 -1.2615901201
H 4.7495706422 -1.2776579994 -2.0199235837
H 5.948032151 -2.5498381526 -0.2587024102
H 5.7578736311 -0.8635706258 0.2598035062
H 4.7045928901 -2.1206791992 0.9255642268
H 1.2313976898 -0.1026554936 -2.3909921563
H 0.156905658 1.3304244223 -2.4827834462
H -2.6510304835 2.8865827045 0.6520767778
H -1.4730407126 3.8006559315 -0.3270161157
H -3.1297019126 3.8999987589 -2.1984803821
H -4.2937139737 2.9952394859 -1.2250597813
H -3.8026101684 4.6213865447 -0.7266558859
H -2.0971128681 -0.229321524 2.8387670116
H -3.5656022935 -0.3437448049 1.8199614469
H -1.1102744346 -2.1505967755 1.5244565614
H -2.6373345514 -2.6101144901 2.293905021
H -2.5914399885 -2.2265014846 0.5663646002
*
