! pbe def2-sv(p) def2/J RI DEFGRID1 loosescf d4 GCP(DFT/SV(P)) printgap
%output
    printlevel normal
end
* xyz 0 1
C 3.5600105861 -3.9743193394 -0.8466194515
C 4.1840297817 -2.6620540748 -1.2938504999
O 3.211644152 -1.8377370645 -1.9679734209
C 2.4408419889 -1.0575505638 -1.2440982558
O 2.5025138375 -0.9492228911 -0.0360718803
C 1.4657989489 -0.2750728003 -2.0985268957
C 0.415060332 0.3669883423 -1.2033922274
H -0.2002337127 1.0737304362 -1.7705990022
C 1.0968817166 1.1451684409 -0.0894344811
O 2.0088550394 1.9098486608 -0.3088472958
O 0.5487847678 0.937004314 1.0900397061
C 1.0925759654 1.6363449693 2.2261431431
C 0.4177970911 2.9843801514 2.4118995635
S -0.6998791178 -0.9118197234 -0.5350937981
P -2.1125330071 0.3735274061 0.3980704579
S -2.2025669659 2.2084359579 -0.2774009611
O -3.4713327887 -0.4573591105 0.2116340284
C -4.0679419755 -0.6214683706 -1.0794173043
O -1.9653987559 0.2917621215 1.9683785562
C -1.8759553963 -0.964931591 2.666550434
H 3.1306259898 -4.4935291927 -1.6987122512
H 4.3230194917 -4.5980961153 -0.3929570293
H 2.7768163064 -3.7848521663 -0.1159544033
H 4.9647447002 -2.8233983511 -2.0370230848
H 4.5795105353 -2.1068497064 -0.4385523309
H 1.0131016742 -0.9322790746 -2.8397782834
H 2.0273004748 0.5078155151 -2.6134431672
H 0.9016107133 0.9744435761 3.071137775
H 2.1679328839 1.7512664919 2.064529023
H -0.6584465145 2.8537236793 2.5020624785
H 0.8004898348 3.4571493406 3.3099891091
H 0.6181752989 3.6260794451 1.5564238966
H -4.1550359911 0.3455479056 -1.577277084
H -5.0524970121 -1.0434485302 -0.8950138273
H -3.4641231667 -1.299135318 -1.68259961
H -0.9713160847 -1.4914960338 2.3620104421
H -2.7531277276 -1.5736476704 2.4559902711
H -1.8325101444 -0.7020171099 3.7202931782
*
