! pbe def2-sv(p) def2/J RI DEFGRID1 loosescf d4 GCP(DFT/SV(P)) printgap
%output
    printlevel normal
end
* xyz 0 1
C 5.1122115909 -2.2656222943 -1.426648383
C 4.1344873559 -1.1114547094 -1.5154723367
O 3.1155479456 -1.3164231491 -0.5149518258
P 2.1477746929 -0.1414207886 -0.0657702378
S 3.0389563444 1.5432304043 0.4040612868
O 1.3098559075 -0.8533791064 1.0681640904
C 1.5642005954 -0.6293688907 2.4695390344
C 2.8355452218 -1.322218676 2.9115020399
S 0.7529910931 -0.0454931821 -1.6520413386
C 0.0822624603 1.5900078742 -1.2414524317
S -0.6987682566 1.6543086528 0.3936735948
P -2.2316914207 0.2576020013 -0.0158053195
S -3.0025531896 0.2739397474 -1.8209972396
O -3.2722273133 0.4621966553 1.1668564205
C -4.3780364416 1.3778943251 1.0742701811
C -3.9235906693 2.822998908 1.0511014474
O -1.507297381 -1.0756107043 0.4358391206
C -1.8742106538 -2.3691964088 -0.0818289825
C -3.2197390776 -2.8191009699 0.4472382782
H 5.5867792091 -2.2810059921 -0.4497234695
H 4.589350526 -3.2052134415 -1.5793507143
H 5.8719255236 -2.1474414418 -2.1922071871
H 3.6494143472 -1.0722473385 -2.4947665278
H 4.6247517074 -0.151607175 -1.3207580823
H 1.6257476333 0.4497974281 2.6456855458
H 0.6800920132 -1.0328191797 2.965140552
H 2.9623927716 -1.1975403574 3.982246531
H 2.7903513021 -2.3807598091 2.6700324095
H 3.6890420957 -0.8800211651 2.3985564524
H -0.6536351631 1.8209331671 -2.0108733693
H 0.8887873042 2.322285401 -1.2261230439
H -4.9475297649 1.140426002 0.1700074606
H -4.97523672 1.1567015012 1.9598416053
H -3.3833192735 3.0294521633 0.1280483374
H -4.7907600646 3.4734287504 1.1040891344
H -3.2660507609 3.0267018892 1.892617998
H -1.883281943 -2.3156591262 -1.1757222342
H -1.0639202534 -3.0217235761 0.2468886375
H -4.0015589385 -2.1593372604 0.07237659
H -3.4199123044 -3.831257681 0.1100351304
H -3.2258359596 -2.7890897205 1.5336139611
*
