! pbe def2-sv(p) def2/J RI DEFGRID1 loosescf d4 GCP(DFT/SV(P)) printgap
%output
    printlevel normal
end
* xyz 0 1
C 3.0700772743 -3.7296559594 1.336720335
C 2.988681858 -3.17494413 -0.0763014752
O 2.916587312 -1.7352218476 -0.0603366965
C 1.7407621162 -1.1636298653 0.0712485426
O 0.691041824 -1.7732949094 0.150529326
C 1.8541231684 0.3440852992 0.1110650039
C 0.5291399086 0.9856646799 -0.2597473028
H 0.1611122501 0.5950594525 -1.2196022919
C 0.5398760545 2.5033247956 -0.3455157003
O -0.4046298086 3.134897074 -0.765648407
O 1.6610644747 3.0250471158 0.0877007815
C 1.7955848346 4.462969959 0.0746992656
C 3.2736484213 4.8010544913 0.0677049248
S -0.7800061986 0.5787745755 0.958841427
P -1.821407126 -0.9135566888 -0.1546018063
S -1.3610440036 -1.1667879742 -2.0404612635
O -1.9078063631 -2.2392149034 0.6913980894
C -2.3091049213 -2.2421034051 2.0753566774
O -3.3416208969 -0.4018547786 0.0245145146
C -3.7944590615 0.7792104506 -0.6367068028
H 2.1549451941 -3.5057008368 1.8800386095
H 3.1966080271 -4.8062187921 1.2911913316
H 3.9133346757 -3.2907197591 1.8626031023
H 2.1086674059 -3.5624650969 -0.5981317936
H 3.8933904619 -3.3935028843 -0.6435064756
H 2.6385711478 0.656393055 -0.5784040619
H 2.1496246651 0.6404357237 1.1201454796
H 1.2785504462 4.8512491293 -0.8077073345
H 1.2994072596 4.8495235749 0.9692305476
H 3.3916559366 5.8792848361 0.0873286539
H 3.7573138907 4.3721102275 0.9396584802
H 3.7468021136 4.4079511496 -0.827167428
H -2.1890019489 -3.272405226 2.4001454715
H -3.3468344723 -1.9244532475 2.1611669118
H -1.6643622473 -1.5772244821 2.6503239224
H -3.6561169193 0.6811152452 -1.714775722
H -3.2434145714 1.6510688985 -0.2791616572
H -4.8497499821 0.8672963887 -0.3929481342
*
