! r2scan-3c def2/J RI DEFGRID2 scfconv6 printgap
%output
    printlevel normal
end
* xyz 0 1
C 5.2997174977 -0.7388395763 -1.8284702708
C 4.5226199912 -1.3841749746 -0.6978622217
O 3.1201450647 -1.310340856 -1.0167055109
C 2.2807005472 -1.9370804904 -0.211283102
O 2.6233798928 -2.6229485959 0.7251137424
C 0.8370966166 -1.7588878274 -0.6461413167
C 0.5487561226 -0.298261996 -0.9730865567
H 1.1633455797 0.0136566012 -1.8249144751
C 0.9180521047 0.6070417704 0.1875470972
O 1.843621476 0.3611625438 0.9262770528
O 0.1716880443 1.6925785311 0.2405612007
C 0.4754168991 2.6786703764 1.2477116751
C 1.5049330855 3.6688572133 0.7315145897
S -1.1626897715 -0.0394855452 -1.5333347347
P -2.1892448237 0.16824483 0.3158820095
S -1.3632039737 -0.5897445707 1.9276268677
O -2.5926516357 1.6838592135 0.4938951368
C -3.274232029 2.421660364 -0.54314128
O -3.6156319751 -0.4621312313 -0.0467358944
C -3.7793617152 -1.8689681778 -0.2555867299
H 6.3606961151 -0.7969114424 -1.609959358
H 5.0964431789 -1.2551133261 -2.7617985289
H 5.0124793769 0.3031039327 -1.9313082643
H 4.6765002946 -0.8670973972 0.2548692454
H 4.7907618317 -2.4370023121 -0.5643065664
H 0.2026599174 -2.1129607671 0.1689786825
H 0.6638318073 -2.3710198404 -1.5325075906
H -0.4817191757 3.1573084827 1.4570612825
H 0.8349872712 2.1574660928 2.1398802776
H 2.4488650685 3.1622796597 0.543540012
H 1.1550620786 4.1274669558 -0.1891262085
H 1.6618077324 4.4384010985 1.4797944186
H -2.681990994 2.4069347571 -1.4577934931
H -3.3663643049 3.4335620536 -0.1576778694
H -4.2544872913 1.9858110584 -0.7238489727
H -3.3535064162 -2.1518824567 -1.217957608
H -4.8521244972 -2.0440205801 -0.2444515393
H -3.2959661539 -2.4277047726 0.5474533769
*
