! r2scan-3c def2/J RI DEFGRID2 scfconv6 printgap
%output
    printlevel normal
end
%cpcm
    smd true
    smdsolvent "water"
end
* xyz 0 1
C 5.4212774203 -1.2724825907 -0.4635731193
C 4.7176261972 -1.8764528013 -1.6682101271
O 3.3642733452 -2.2297541169 -1.323900207
C 2.3983077601 -1.3772937187 -1.5952401184
O 2.5387729991 -0.3338553361 -2.1961327345
C 1.0556245578 -1.8940050813 -1.1071109755
C 0.278225833 -0.7306100946 -0.5101558493
H 0.1575165058 0.0632734399 -1.2622841676
C 1.0356152968 -0.1011687942 0.6433967371
O 2.235443004 -0.1857347169 0.7679499206
O 0.2320732928 0.5472304434 1.4604083333
C 0.811694834 1.2992815519 2.5464273586
C 1.1813376641 2.7001428736 2.0911241813
S -1.3886998639 -1.2409496201 0.0102844663
P -2.268198194 0.694185551 0.1832921871
S -1.4329970069 2.1409812222 -0.8377579123
O -3.785207301 0.3905693436 -0.2346823273
C -4.1352272662 0.0723645656 -1.5852856517
O -2.4692323917 1.0311687332 1.7119121206
C -3.1589908679 0.135004891 2.6064460112
H 4.8793234823 -0.3913037616 -0.1262914566
H 5.4525252125 -1.9910505967 0.3502703308
H 6.4322304057 -0.9895153707 -0.7370996087
H 5.1841237627 -2.8126280161 -1.9769160046
H 4.6910102105 -1.1685787109 -2.5015936314
H 1.2216339512 -2.6810647571 -0.3728485985
H 0.5075888117 -2.3016162328 -1.957677758
H 0.0314712409 1.3222214653 3.3070419658
H 1.6906222883 0.7565580124 2.9049044491
H 0.3110373616 3.1949499415 1.6656892446
H 1.5420185294 3.2720232539 2.9393062154
H 1.959992699 2.6568180543 1.3322541894
H -3.7917081083 -0.9325893215 -1.8301150391
H -3.6901937501 0.7961642589 -2.2700321
H -5.2199353587 0.1279781786 -1.6280620351
H -3.0875023993 0.5999494293 3.5862560507
H -2.6729847455 -0.8406603256 2.6031269329
H -4.1988563034 0.0343405805 2.3024991779
*
