! r2scan-3c def2/J RI DEFGRID2 scfconv6 printgap
%output
    printlevel normal
end
* xyz 0 1
C 5.3586826783 1.3887953461 -1.8574894144
C 4.0110807243 0.6952460285 -1.8712903588
O 3.7886754105 0.1263517707 -0.566074891
P 2.3332408568 -0.101052682 0.0028282642
S 1.1095064974 1.4139510813 -0.280075892
O 2.8058432568 -0.4338999393 1.4727068088
C 1.9974620547 -1.0557959892 2.4878150301
C 1.1087730586 -0.0492028211 3.1919318988
S 1.7209052446 -1.9514143749 -0.8547393667
C -0.0409235412 -1.6453650134 -1.1210709399
S -0.9843737073 -1.5537448766 0.4427364286
P -2.1720041784 0.1481850433 0.0663861199
S -2.1621342659 0.8470181246 -1.7720197561
O -1.6908145503 1.0410264414 1.2818719721
C -2.3654971545 2.2322660017 1.7378191163
C -2.1248661257 3.4071614622 0.8112072514
O -3.6358718392 -0.2361659145 0.5703833805
C -4.6257948532 -0.8067015931 -0.2997747178
C -4.2556787817 -2.2088257345 -0.7388214331
H 5.5601295796 1.7969319118 -2.8425029786
H 5.3562425758 2.1939169498 -1.1280641278
H 6.1359685549 0.6778749032 -1.5935557604
H 3.9904428338 -0.1188202139 -2.6007265344
H 3.2024906913 1.4009179993 -2.0953477365
H 1.4009635136 -1.8576611261 2.0396614929
H 2.7287762004 -1.4857022835 3.1749029926
H 0.3828999702 0.3695649781 2.4971580391
H 0.576346728 -0.5443804148 3.9976082348
H 1.7087753282 0.7615133305 3.5966820628
H -0.395938821 -2.4962541274 -1.6968493308
H -0.1874392281 -0.7083508132 -1.6654408095
H -3.4318104841 2.0156740691 1.8384278793
H -1.9283545684 2.4103672176 2.7221182578
H -2.6099107647 3.243764162 -0.149254125
H -2.5217509772 4.3113982858 1.2611509978
H -1.0574728515 3.5272862091 0.6362201016
H -5.5378929097 -0.7978367211 0.2984117216
H -4.7408892804 -0.1511108345 -1.1689866639
H -4.0258148305 -2.8277883419 0.1247351781
H -5.0848370362 -2.6445166035 -1.2868310746
H -3.3835783444 -2.1716377634 -1.3906427557
*
