! pbe def2-sv(p) def2/J RI DEFGRID1 loosescf d4 GCP(DFT/SV(P)) printgap
%output
    printlevel normal
end
* xyz 0 1
C 5.039021299 -0.6063196224 0.5119859139
C 4.5920254142 -1.6731064076 -0.4742838673
O 3.1549019026 -1.784602175 -0.4889052516
C 2.4739767311 -0.9893083166 -1.2855537439
O 2.9650867193 -0.1842499394 -2.0460376978
C 0.979904909 -1.2320947111 -1.1632440019
C 0.2392137378 0.0856808201 -1.3420063684
H 0.6157040656 0.5835623638 -2.2439539612
C 0.4280616786 1.0471882774 -0.1841398696
O -0.4345099704 1.8390193926 0.1430874507
O 1.6025495131 0.933503554 0.3731269387
C 1.9161463379 1.805050984 1.4808686659
C 2.4113354903 3.1552643961 0.9919517071
S -1.5496884321 -0.1179576081 -1.6166009372
P -2.1979149543 -0.2123009757 0.3832370658
S -1.0244162533 -0.7923545099 1.8366960235
O -2.9876977108 1.1092213073 0.8020641915
C -3.7644322983 1.8617393536 -0.1458758974
O -3.3611351051 -1.2786562763 0.0463981674
C -4.1761562872 -1.8068940251 1.0983306183
H 6.1230713749 -0.576440054 0.544050414
H 4.6650702558 0.3655970619 0.1989911029
H 4.6553224299 -0.8321029449 1.5031736058
H 4.9399423707 -2.6624814367 -0.1774130112
H 4.9331045961 -1.433814311 -1.4855099812
H 0.7675391608 -1.6904002899 -0.1962953892
H 0.68019078 -1.9198923179 -1.9566547775
H 1.0183313383 1.9112205369 2.0966550308
H 2.6876561786 1.2668277449 2.0312703472
H 1.6156418148 3.6800712514 0.4683255965
H 2.7251584978 3.7487670058 1.8440217973
H 3.2519987192 3.0232562107 0.315701025
H -4.4686806521 2.4384272925 0.4485375358
H -4.2869876488 1.1935316991 -0.8314149189
H -3.098685867 2.5229982728 -0.6995348516
H -3.5481862122 -2.2849581796 1.8520429984
H -4.8256176991 -2.5374205146 0.6232691071
H -4.7624792181 -1.0139886879 1.5643806029
*
