! wb97x-v def2-tzvp def2/J RIJCOSX DEFGRID2 scfconv7 GCP(DFT/TZ) printgap
%output
    printlevel normal
end
* xyz 0 1
C 3.345363370278615 -1.902736661998851 2.148600845539234
C 2.098618229014516 -2.0009220264215015 1.3048418526674106
O 1.6676513017530423 -0.6846416665868615 0.8130699234111577
P 2.4008514610756584 0.0582723681600482 -0.4099213512854549
S 3.1180597599277804 -1.0724533342541849 -1.820710360294208
O 3.530481393112124 1.0069771768592803 0.2324310173298242
C 3.274930653689129 1.783248126157651 1.4623407371778752
C 4.563456697219774 2.475677324618876 1.8191838741685842
S 0.9247945467620463 1.47084275152327 -0.9844587619680271
C -0.10836916718492504 0.4375757488427195 -2.097829482632889
S -1.0953189338862224 -0.8994898214453103 -1.323904047063449
P -2.5412042570022386 0.23468377820076183 -0.2517777132840131
S -3.202412247525427 1.8181627809510301 -1.1648068338760298
O -1.938611917642155 0.6019120394647016 1.1859846399804006
C -1.4308407200049218 -0.43440923877935766 2.1042985149369953
C -0.5891146409590102 0.26337823962381746 3.140024015061806
O -3.5838999983082944 -0.9296492665532474 0.13074830112166638
C -4.502322142841117 -1.493264077623519 -0.871165189154601
C -5.556914763223976 -2.26568687029186 -0.12363672445439977
H 4.199946377660554 -1.5455067419717623 1.5654263579560628
H 3.1903205508832087 -1.2370648066528143 3.0022435675655954
H 3.587993892258798 -2.900493237214426 2.5292247402692807
H 1.2434979017303112 -2.3496304044817093 1.8881580906139497
H 2.234874973015601 -2.660826227606944 0.442951840244535
H 2.474280436318345 2.5031353765460826 1.2623879579428703
H 2.9553668953933365 1.0913557325506769 2.2459187738195743
H 4.408885561465251 3.0599535216716003 2.731476084915439
H 5.357503205903275 1.7467670632644405 2.0058276670783264
H 4.878245210053447 3.154546141698062 1.0219179558586708
H 0.5321266787794434 -0.053861584501997954 -2.836001540826594
H -0.7793507830444484 1.1377318511092152 -2.6045612977329498
H -2.295236187552488 -0.9358950185425313 2.547766691492277
H -0.8465071608297394 -1.157521094082363 1.5270033268668257
H -1.1877416788153936 0.974797392318985 3.7160478073836063
H -0.1837853043938406 -0.48430770473665874 3.8290671227402515
H 0.2468017339008515 0.7938138991343783 2.675043333445459
H -4.933550588561478 -0.6682233966139133 -1.446795181729065
H -3.922405967010162 -2.1381336872650007 -1.5386096668103486
H -6.128870158178282 -1.6073356336311415 0.5361335030898581
H -6.244569850051229 -2.7141531726304753 -0.8471955986932234
H -5.108956286535747 -3.068047771064694 0.46947303285616165
*
