! pbe def2-sv(p) def2/J RI DEFGRID1 loosescf d4 GCP(DFT/SV(P)) printgap
%output
    printlevel normal
end
* xyz 0 1
C 3.4445074212 2.973859411 0.1306749341
C 3.4707092409 1.7081764388 -0.7027673343
O 3.5333194299 0.5252473701 0.1177245314
P 2.2890669278 -0.1116026196 0.8688055573
S 1.5121961085 0.8488354654 2.3853793354
O 2.8431462746 -1.5066977017 1.348212443
C 3.6024715635 -2.405536353 0.500951305
C 5.0880372046 -2.2331238914 0.7416223624
S 0.9737844551 -0.5684930543 -0.7595449413
C -0.2983098287 -1.3872815239 0.2389033069
S -1.5094238553 -0.2491985681 0.9657623559
P -2.6522341993 0.1477188216 -0.7956353239
S -2.3960808489 -1.1197047143 -2.2746613184
O -2.4316320142 1.6757939521 -1.1470907382
C -1.2223278526 2.1870314828 -1.7391718489
C -0.3887867398 2.9195729141 -0.7047394286
O -4.1330494809 0.3296542631 -0.2789349085
C -5.0565148712 -0.772226683 -0.2106302234
C -4.6693356393 -1.7825727948 0.8509258613
H 3.4637717032 3.8370573726 -0.5268348558
H 2.5455164171 3.0098944722 0.7417221601
H 4.3084643419 3.006064612 0.7890375434
H 4.376939064 1.653322708 -1.3092580151
H 2.5929792235 1.640315299 -1.3513538346
H 3.2678544096 -3.4038008062 0.7891875292
H 3.3439805678 -2.214835868 -0.5440759554
H 5.4002633886 -1.2295365286 0.4661648795
H 5.315178376 -2.3934602175 1.7920031376
H 5.6316829706 -2.9567229233 0.1422614289
H 0.1705039148 -1.9100320516 1.0696540378
H -0.8104089555 -2.0749085426 -0.434484835
H -0.6639080118 1.3640812669 -2.1995338795
H -1.5602705137 2.8709688541 -2.5205047208
H 0.4626825394 3.3814300288 -1.1944296311
H -0.9880974512 3.6882709012 -0.2253966429
H -0.0316202892 2.2383042576 0.066090077
H -6.0114806734 -0.2965879368 0.0169163004
H -5.1039115133 -1.2478180502 -1.1956495639
H -3.7510949134 -2.2928014969 0.5628960034
H -4.5107644392 -1.2859286659 1.8050588001
H -5.4620922444 -2.51674198 0.9535004171
*
