! r2scan-3c def2/J RI DEFGRID2 scfconv6 printgap
%output
    printlevel normal
end
%cpcm
    smd true
    smdsolvent "water"
end
* xyz 0 1
C 5.7880946694 -1.2640311384 -0.5931028124
C 4.9111434196 -0.5977169837 -1.6326053685
O 3.509233161 -0.8661045209 -1.418427302
P 2.7220100119 -0.305813066 -0.1652425338
S 3.2104424937 1.5018557705 0.4295485037
O 2.9636174191 -1.4512481479 0.9111908409
C 2.7090988564 -1.2561147217 2.3131806281
C 1.226650458 -1.1740478885 2.6145681693
S 0.7609345819 -0.6011460048 -0.92033154
C 0.1011521653 1.081218391 -0.7064772647
S -1.1029312317 1.1988004397 0.6327725087
P -2.7149509024 0.3243403625 -0.4577823653
S -2.9300624688 0.9997173378 -2.2802929839
O -3.9738691794 0.4874686724 0.4953758147
C -4.7005879495 1.726022688 0.6166450441
C -4.1664860924 2.5701377671 1.7570695539
O -2.4504353225 -1.2260827136 -0.4373517514
C -2.2564600188 -1.9977628982 0.7744796866
C -3.5500861847 -2.6590377026 1.202208669
H 5.6195449564 -0.8109387276 0.3827104789
H 5.5590487592 -2.3247550488 -0.5335332087
H 6.8303965471 -1.1330771578 -0.8669947413
H 5.0990341833 -0.9905352615 -2.632776616
H 5.0592369696 0.4869844433 -1.62592444
H 3.1688156277 -2.1244999471 2.78694578
H 3.2183386757 -0.3416632488 2.6343824679
H 0.7127255695 -2.0403662832 2.2057732797
H 1.0794478431 -1.1408574262 3.6892059797
H 0.8048899916 -0.2692827306 2.1767120463
H -0.3898362629 1.3687021534 -1.6369356586
H 0.9213033664 1.759973834 -0.4628279004
H -4.6468528622 2.260757439 -0.3372054225
H -5.7314130617 1.418356588 0.8015304434
H -4.7909743225 3.450909124 1.8670248665
H -4.1832218954 2.0010600189 2.6820580398
H -3.144063732 2.882848428 1.5579173834
H -1.4982486965 -2.7350073363 0.5030224975
H -1.8721536412 -1.337863547 1.5572270463
H -4.2919949002 -1.9057724766 1.4526234047
H -3.9364475411 -3.2773313196 0.3966553453
H -3.3602175808 -3.2799778476 2.0720803442
*
