! r2scan-3c def2/J RI DEFGRID2 scfconv6 printgap
%output
    printlevel normal
end
* xyz 0 1
C 3.3337768191 0.2264206077 -2.9256454163
C 1.8845766185 0.4328574095 -2.5415409331
O 1.455071148 -0.4891644261 -1.5193428036
P 2.0800800233 -0.5036249058 -0.0650636175
S 2.6912307182 1.1955791853 0.7071358699
O 3.231733941 -1.5839628579 -0.2593581087
C 4.2969109863 -1.7626769848 0.6880588508
C 3.8002762795 -2.2883208108 2.0196633473
S 0.556857127 -1.5653810112 0.9587246818
C 0.0500653189 -0.3014832119 2.1788436045
S -1.747052864 -0.1072368616 2.2848817751
P -2.1362004186 0.6381023505 0.3474292021
S -0.7440999808 1.6946261077 -0.5485998269
O -3.4532429868 1.4125138949 0.7471482295
C -4.0328795354 2.4521129563 -0.0676795413
C -4.8474189247 1.8815429564 -1.2103453352
O -2.6939159112 -0.5922344126 -0.4956805929
C -1.9845588704 -1.3170684503 -1.515206901
C -2.5604399162 -0.9908731142 -2.8799391791
H 3.503418882 -0.8105374548 -3.203739291
H 3.5780071552 0.8731679306 -3.7625079839
H 3.9798664707 0.4776518578 -2.0850693803
H 1.2100788981 0.226786588 -3.3738317961
H 1.7118803221 1.4510941044 -2.177219607
H 4.965757407 -2.4717098018 0.198565994
H 4.8036153242 -0.8015844865 0.8222812328
H 3.1923588783 -1.5302192392 2.5125020386
H 3.1993655378 -3.1823865915 1.8738150588
H 4.64998785 -2.5224221804 2.6529253055
H 0.5206306814 0.6481358487 1.9096747761
H 0.3643595416 -0.6268803975 3.167282211
H -4.6569770693 3.0144220314 0.628817844
H -3.2264884884 3.0929340484 -0.4405753209
H -5.5778522477 1.173669377 -0.8280457869
H -5.3606530957 2.6899143223 -1.7218819187
H -4.1970540933 1.369911084 -1.9159639561
H -0.9218341762 -1.0628834761 -1.479544508
H -2.1120326314 -2.372068455 -1.2655929662
H -2.0799672794 -1.6165531509 -3.6252552643
H -3.6306482504 -1.1776514914 -2.8898314124
H -2.3753299179 0.0536222797 -3.1231140053
*
