! r2scan-3c def2/J RI DEFGRID2 scfconv6 printgap
%output
    printlevel normal
end
%cpcm
    smd true
    smdsolvent "water"
end
* xyz 0 1
C -0.5746110547 -0.6407071867 -1.2481e-06
F -1.5158102793 0.3445547782 -6.1263e-06
Cl 1.0466446712 0.1019009877 -1.986e-07
H -0.6979767707 -1.2220310295 -0.9150031163
H -0.6980646431 -1.2218137927 0.9151404543
*
