  34
        -42.41146196
 C         -0.8175655449       -3.7787951733       -0.7187815875
 C         -0.6241333900       -2.3828785488       -0.1385961705
 C         -1.9283569541       -1.8248052258        0.4248120017
 C         -1.7683398247       -0.4266077976        1.0287347184
 N         -1.3796732001        0.5640363015        0.0452518244
 C         -2.4314562626        1.1058844782       -0.8062544612
 C         -3.0914195903        2.3265895261       -0.1734136719
 C         -0.1434127296        1.0277992741       -0.1118587866
 O          0.2037712014        1.8471608107       -0.9509478648
 S          1.0838211857        0.3803733784        1.0280524806
 C          2.5736827120        1.2051794209        0.3879662708
 C          3.1973940220        0.4408246931       -0.7691246567
 C          3.7147291474       -0.9275354991       -0.3461876352
 H         -1.1694717719       -4.4632550198        0.0491425806
 H         -1.5481796120       -3.7603039351       -1.5243616996
 H          0.1200726254       -4.1594872116       -1.1154607981
 H          0.1248312696       -2.4148533491        0.6548109721
 H         -0.2493613606       -1.7156042864       -0.9189601889
 H         -2.6782862469       -1.8013394732       -0.3680669140
 H         -2.2933605442       -2.4869674283        1.2104220427
 H         -1.0143849988       -0.4504239673        1.8174012955
 H         -2.7165812275       -0.1052686188        1.4649631427
 H         -1.9787906078        1.3853486793       -1.7606255375
 H         -3.1657926682        0.3185959810       -0.9754487797
 H         -3.5214767860        2.0766220590        0.7927261194
 H         -2.3554843542        3.1153846137       -0.0349924207
 H         -3.8784812571        2.6951447487       -0.8239455811
 H          3.2512270792        1.2698062903        1.2378524230
 H          2.2578581368        2.2020943706        0.0782729918
 H          2.4524109686        0.3348684933       -1.5623908394
 H          4.0177636421        1.0436225431       -1.1654835950
 H          4.4914532278       -0.8213347679        0.4073671588
 H          2.9069383182       -1.5230402628        0.0740875845
 H          4.1275635554       -1.4557583141       -1.2010647947
