! pbe def2-sv(p) def2/J RI DEFGRID1 loosescf d4 GCP(DFT/SV(P)) printgap
%output
    printlevel normal
end
* xyz 0 1
C 4.6350879337 -1.6692567515 -0.5352241016
C 4.6376325185 -0.1769312321 -0.2750279203
O 3.476872183 0.2450157652 0.4611850029
P 2.0214586835 0.2752313704 -0.1822712464
S 2.0092498259 0.7768731385 -2.083673868
O 1.2475154367 1.146128472 0.889270846
C 1.6730482909 2.4324712744 1.3846121491
C 1.8425089635 3.4538847909 0.2796784179
S 1.2062098533 -1.6201333461 0.2451294517
C 0.0398148648 -1.7985112255 -1.1450299525
S -1.6810367948 -1.9426636939 -0.6147377443
P -1.9570039918 0.0206934384 0.1579231079
S -1.3552258373 1.5080842793 -0.958781933
O -1.2740211463 0.0185017649 1.5787177572
C -1.5100174255 -0.9795691296 2.6035514396
C -2.6057842315 -0.5384274588 3.5513000681
O -3.506715481 0.0416254815 0.5172970954
C -4.5206761948 0.4182099004 -0.4310105415
C -4.6664206018 -0.5901997997 -1.5520982377
H 4.4812842992 -2.2147838283 0.3922551826
H 3.835792196 -1.9231420627 -1.2296850721
H 5.5855784796 -1.9577063786 -0.9722299923
H 4.6680389061 0.3770604383 -1.2188704975
H 5.4727496362 0.1213048164 0.3602950994
H 0.8687105063 2.715567373 2.0663017428
H 2.6044588396 2.2917568571 1.9383711295
H 2.0577737599 4.4254789677 0.7128782443
H 2.6614515052 3.1664064752 -0.3788932376
H 0.9315360714 3.5171522188 -0.313639954
H 0.2685845372 -2.7274925075 -1.6608599315
H 0.1591367096 -0.9387182531 -1.8110490561
H -1.761012203 -1.9295750873 2.123157197
H -0.548545345 -1.0703820675 3.1132012584
H -2.3628544632 0.4301160639 3.9797702171
H -3.5525044614 -0.4615724285 3.0236756951
H -2.6971251692 -1.2703354893 4.3478111055
H -5.4277348822 0.4832993433 0.171681254
H -4.2682482127 1.4052542891 -0.8309447288
H -3.7844712531 -0.5704345648 -2.1902228554
H -4.7844848033 -1.5922589298 -1.1475611591
H -5.5362203367 -0.3362783972 -2.1494561506
*
