! pbe def2-sv(p) def2/J RI DEFGRID1 loosescf d4 GCP(DFT/SV(P)) printgap
%output
    printlevel normal
end
* xyz 0 1
C 4.8549189363 -0.5842159312 -1.8674007594
C 4.200769232 -1.7893967383 -1.223563759
O 3.4734299202 -1.4603270717 -0.0266394256
P 2.3691937233 -0.3275027411 0.1082041573
S 2.9874153585 1.530627574 0.2846318146
O 1.5570791672 -0.8666734989 1.3577862517
C 1.7267138472 -0.321970528 2.6795685588
C 3.0440006163 -0.7619844338 3.2828063618
S 1.0389458066 -0.7298992559 -1.4855628596
C 0.1214610431 0.8311088772 -1.3672965725
S -0.7794893219 1.0296552495 0.1861097916
P -2.7545945947 0.4601562705 -0.4232369273
S -2.9465238477 -0.0028391567 -2.3148777965
O -3.6594975499 1.6944019316 -0.0380932362
C -4.1442851701 2.0062310859 1.2902369925
C -3.0225182555 2.2341368986 2.2806062588
O -3.2425785705 -0.6384488251 0.6218168551
C -3.0907034972 -2.0522644849 0.4124992028
C -1.6387009106 -2.4770884129 0.3464004159
H 5.4859970797 -0.0652232491 -1.1496529188
H 5.4589033665 -0.9079111365 -2.7090090349
H 4.095242539 0.1105350591 -2.2238257987
H 4.9446421066 -2.5111506259 -0.8811739876
H 3.5088760382 -2.2719924386 -1.9196845114
H 1.6693090731 0.7698323223 2.6195734243
H 0.8734901094 -0.705406329 3.2401339146
H 3.866163232 -0.3649674755 2.6880692648
H 3.1244426909 -0.38457207 4.297209312
H 3.1104712514 -1.8465067732 3.2896269892
H -0.5851475972 0.8398373407 -2.1990853049
H 0.8282784445 1.6576739947 -1.4299243827
H -4.7335574907 2.9108777903 1.133228042
H -4.7925830678 1.190478257 1.6159914751
H -3.4462683835 2.5251426972 3.2367393211
H -2.4459310491 1.3197843794 2.4112476719
H -2.3560636993 3.0182220341 1.9301913882
H -3.6017006368 -2.4951873284 1.2689285191
H -3.6084846914 -2.322796486 -0.5126153392
H -1.1808813169 -2.0962351587 -0.5657661223
H -1.0849636459 -2.0986627632 1.2027515909
H -1.5802109052 -3.5606516007 0.3338695189
*
