! pbe def2-sv(p) def2/J RI DEFGRID1 loosescf d4 GCP(DFT/SV(P)) printgap
%output
    printlevel normal
end
* xyz 0 1
C 1.5204614704 -2.0896182531 1.827291439
C 2.9849810136 -1.8446488278 1.5271880587
O 3.2330368201 -0.4926771161 1.1034478687
P 2.7855718678 0.052552257 -0.3237149785
S 2.9752461967 -1.2220840851 -1.793898511
O 3.7134524344 1.3100611774 -0.5242082755
C 3.7128230659 2.5008745357 0.2988353446
C 4.5626157608 2.3276191512 1.540701861
S 0.8341299725 0.9058771812 -0.0405899077
C -0.074869759 0.0157323593 -1.3282948148
S -1.2282410608 -1.2053195027 -0.6617403748
P -2.7422568054 0.2018704901 -0.1310637417
S -3.0917892732 1.6071183923 -1.4452039076
O -2.2912330909 0.7998489358 1.2533051833
C -2.0223045439 -0.0171926251 2.4235049207
C -1.0565538455 0.745443488 3.306213254
O -3.9799747965 -0.7059901825 0.2838871664
C -4.9610065002 -1.1734968025 -0.6597299582
C -4.3721698712 -2.124006583 -1.6817436203
H 1.1490144157 -1.3431579572 2.5244886398
H 0.9363724108 -2.0461498566 0.9085323102
H 1.4051919827 -3.0769547397 2.2626731009
H 3.3383275401 -2.5235916984 0.7448900905
H 3.6021928951 -1.9553173028 2.4199260014
H 4.1219109774 3.2695820728 -0.3593057583
H 2.679069076 2.7483983452 0.5564987829
H 4.1288977642 1.5796855633 2.1981096885
H 5.5653086664 2.0133180003 1.2638131191
H 4.6171251481 3.2768387006 2.064780048
H 0.6381625079 -0.5210444904 -1.9587693528
H -0.6424405243 0.7488573907 -1.90296998
H -2.975198863 -0.1955476027 2.9246926373
H -1.602917691 -0.9727897602 2.0947575375
H -1.4924229028 1.6960862366 3.5989153354
H -0.8440442007 0.1580135722 4.193751922
H -0.1340127598 0.9423861024 2.7657453589
H -5.7062004482 -1.6661813932 -0.0335274867
H -5.4050523298 -0.3040587508 -1.1539186034
H -3.8286543319 -2.9249984286 -1.1867063072
H -5.1727340513 -2.547109296 -2.2799838534
H -3.6884516515 -1.5889976533 -2.3394117307
*
