! r2scan-3c def2/J RI DEFGRID2 scfconv6 printgap
%output
    printlevel normal
end
* xyz 0 1
C 5.5573576083 -0.4192199006 -1.7329120718
C 4.4584577355 -1.2537633691 -1.1062357325
O 3.1818136157 -0.58040922 -1.2102993006
P 2.6192344232 0.3168598688 -0.0267253029
S 3.7726160465 1.7333069767 0.6802018033
O 2.2457442452 -0.8068900176 1.0471897616
C 2.1288368694 -0.515252864 2.4483575184
C 0.9226355929 0.3489601519 2.7524394123
S 0.8319591267 0.9349650137 -0.9541548875
C 0.164398404 -0.6914415754 -1.4364903861
S -0.7261738738 -1.5316639803 -0.1069171894
P -2.3812041668 -0.2177377515 -0.0667732924
S -2.9732942051 0.4500597689 -1.8190145975
O -1.8963606891 0.8860136577 0.9569917542
C -2.4058667075 2.2327413283 0.929850202
C -3.846357672 2.2820779204 1.3927953661
O -3.4373222959 -1.0055250547 0.8201890782
C -4.1029613866 -2.2037306567 0.3733107701
C -5.3948129254 -1.8776974921 -0.3512677122
H 5.3088553004 -0.1896288111 -2.765365058
H 5.6797707025 0.5141410663 -1.1874954244
H 6.4900200346 -0.9733991136 -1.701198215
H 4.6705852899 -1.4618350705 -0.054455813
H 4.317292527 -2.1934384908 -1.6434182709
H 2.051915696 -1.4971606972 2.9166761514
H 3.0453348235 -0.0114152278 2.7726655766
H 0.0071550048 -0.1323361667 2.4171771848
H 0.86444166 0.52361471 3.8218871522
H 1.0220471312 1.3080333536 2.2426361263
H 0.9771522227 -1.3391309649 -1.7491537599
H -0.5272344078 -0.4926336762 -2.2562095065
H -1.7412787145 2.7816294218 1.5980786434
H -2.3081174765 2.6229211045 -0.0885347017
H -3.9396398067 1.8305175076 2.3767837782
H -4.1798918883 3.3141855389 1.4322753915
H -4.473767814 1.7321288255 0.6919185931
H -3.4249850265 -2.7745569337 -0.2676342083
H -4.2934493297 -2.7636205476 1.2908094792
H -5.189409828 -1.3039655292 -1.2522996726
H -5.8931214952 -2.801490741 -0.6268792621
H -6.0486691038 -1.2958927474 0.2924789983
*
