! wb97x-v def2-tzvp def2/J RIJCOSX DEFGRID2 scfconv7 GCP(DFT/TZ) printgap
%output
    printlevel normal
end
* xyz 0 1
C -0.9873693373790313 0.7115340741227619 6.702301354346519e-05
C -0.9867377255856711 -0.7124099129000128 0.00013695684606535103
C 0.330889387938879 -1.1228564340953717 9.392381517030624e-05
N 1.117304340087671 0.0004934027096937692 9.08473909616969e-05
C 0.3298942281143968 1.12314784398806 5.9087115543236856e-05
H -1.8524457023402363 1.3597357814012887 5.33985241885528e-05
H -1.8512393680343127 -1.3613817728854603 0.00016692542184840506
H 0.7665712622003318 -2.1114201370066215 0.00011106704529956709
H 2.1256140307895697 0.0009416951108822001 5.124208544057671e-05
H 0.764702186407778 2.112096618683632 3.454971000847129e-05
*
