! pbe def2-sv(p) def2/J RI DEFGRID1 loosescf d4 GCP(DFT/SV(P)) printgap
%output
    printlevel normal
end
* xyz 0 1
C 4.0876448714 -1.8463592832 -2.2743961319
C 4.4322646508 -0.4029786403 -1.9686328474
O 3.9268917027 0.0219767983 -0.6912029537
P 2.3744094268 0.1678536374 -0.3869994926
S 1.3256716842 0.9120124733 -1.8621162197
O 2.3527368429 1.1257394919 0.8650415339
C 2.7143060861 0.7926163642 2.2270792457
C 4.0986934531 0.1931569158 2.3408366746
S 1.7989668079 -1.7661067386 0.3069608108
C 0.0204404879 -1.5538624713 0.143475738
S -0.5842769855 -0.3183490335 1.3648255742
P -2.3286070595 0.3186111821 0.3707039937
S -3.2251352247 1.840955374 1.2130531714
O -3.171504832 -1.0250383869 0.185259105
C -3.8409111846 -1.6529357708 1.2961219122
C -5.2780162409 -1.181578974 1.4022129775
O -1.806797792 0.5243997658 -1.1060939169
C -2.3927404543 1.4884626606 -2.0004958953
C -3.7385728399 1.0120040057 -2.502298624
H 4.6053581038 -2.1530128131 -3.1775985764
H 4.38495253 -2.4901499317 -1.450741297
H 3.015251812 -1.9481294572 -2.4319801999
H 4.027071119 0.2607899683 -2.7390867504
H 5.5096492829 -0.2554907055 -1.8821305967
H 2.643963443 1.752127171 2.7416567914
H 1.9529970348 0.1123457221 2.6212669191
H 4.8318866384 0.8498493488 1.8799750813
H 4.3402025071 0.0645914967 3.3914160368
H 4.1333451989 -0.7761895058 1.8477409736
H -0.4347745711 -2.5189230149 0.3480833202
H -0.2144643679 -1.189413945 -0.8562714429
H -3.7907990242 -2.7220283527 1.0804413886
H -3.2896598623 -1.4369088232 2.2175271415
H -5.3097409417 -0.1137607963 1.6078261
H -5.8041707376 -1.376361899 0.4718746958
H -5.7694075298 -1.7120497324 2.2113870154
H -2.4878675512 2.4433790962 -1.4734047128
H -1.6555220093 1.5824679177 -2.8001477854
H -3.6415576632 0.0343082534 -2.9665256973
H -4.4332245388 0.9404228125 -1.6657975722
H -4.1252462202 1.7220572107 -3.2263544847
*
