! wb97x-v def2-tzvp def2/J RIJCOSX DEFGRID2 scfconv7 GCP(DFT/TZ) printgap
%output
    printlevel normal
end
%cpcm
    smd true
    smdsolvent "water"
end
* xyz 0 1
C 0.7102320892947361 -0.5550881317187669 -0.21580996701815514
C -0.5780107100358686 0.1670483844160701 0.31064657184907535
F -0.47657860371432337 0.2789939321047216 1.648349105188213
Cl -2.0051876232552157 -0.8368668668897716 -0.08342301249281643
Cl -0.7328749303020665 1.78415158110835 -0.4178060661774555
F 0.7685408448152562 -1.7799013760251905 0.33092297572751933
F 0.6462977289860915 -0.6850066001157521 -1.546753422202851
Cl 2.183425597335506 0.35387710071554684 0.23619038976929813
*
