! pbe def2-sv(p) def2/J RI DEFGRID1 loosescf d4 GCP(DFT/SV(P)) printgap
%output
    printlevel normal
end
* xyz 0 1
C 5.5784277444 -0.7214529328 -0.9221855671
C 4.2938468054 -1.4803171912 -1.1835614914
O 3.2482513878 -0.5884577857 -1.6459756711
P 2.1757560017 0.0789017991 -0.7036889491
S 0.9800603952 1.2050701348 -1.7653420113
O 3.0734397556 0.7876180479 0.3924788135
C 2.5743684533 1.6937594889 1.3936708061
C 3.7573326602 2.4611937021 1.9467131092
S 1.2848892738 -1.5570124454 0.3363265454
C -0.0901420707 -1.8653437218 -0.8183770095
S -1.7018311843 -1.9693332863 -0.0035991172
P -2.046528329 0.0959125091 0.4114626205
S -0.756759525 1.0179174334 1.5540511951
O -3.5207036457 0.04062371 0.9970393352
C -3.7799441549 -0.4630621566 2.324544346
C -5.1459191012 0.0332436774 2.7526444681
O -2.2244995565 0.8021615965 -0.9795296902
C -3.1858865006 0.3922342991 -1.9846143933
C -4.4599210712 1.2023970026 -1.8672713514
H 6.3584957374 -1.4275935281 -0.6552116507
H 5.8762640649 -0.1768829731 -1.8139771196
H 5.4409889179 -0.0137498817 -0.1094171809
H 3.9457234088 -1.9960298849 -0.2839952062
H 4.4140753268 -2.1960337943 -1.9986876665
H 1.8381410808 2.3601854938 0.9334211225
H 2.070379031 1.1127873961 2.1705390492
H 3.4043642377 3.1502865954 2.706602373
H 4.4723290549 1.7736246669 2.3890494127
H 4.2441444591 3.0202856962 1.1523843494
H 0.0633647895 -2.8329039079 -1.2885713569
H -0.1030448634 -1.0563211829 -1.5540569807
H -3.743458419 -1.554743909 2.284551345
H -2.9925643983 -0.1008744208 2.9937396784
H -5.9054881282 -0.3246527718 2.0637827653
H -5.3614459814 -0.3377419852 3.7491501982
H -5.161465511 1.1195610868 2.7638572189
H -2.6770253103 0.5804423382 -2.9322876657
H -3.3844010127 -0.6773311333 -1.871329173
H -4.2330610388 2.2626726917 -1.9388880814
H -5.1319306498 0.9235411341 -2.6728657685
H -4.9413927268 1.0098840011 -0.9123436876
*
