! pbe def2-sv(p) def2/J RI DEFGRID1 loosescf d4 GCP(DFT/SV(P)) printgap
%output
    printlevel normal
end
* xyz 0 1
C 1.5372344144 -0.8515854889 -2.792965043
C 2.166133295 0.4156390563 -2.2478579781
O 2.9441837307 0.1508244605 -1.0723780898
P 2.3530242954 0.1178614266 0.3959207667
S 1.1006080255 1.5748775589 0.8184653968
O 3.7660959059 0.1495276625 1.1001728524
C 4.0394899466 -0.3300461143 2.4297841649
C 3.1564200157 0.3155314399 3.4783536928
S 1.6151997166 -1.8462620515 0.7708894475
C -0.1006985223 -1.4781160571 1.2226020969
S -1.3004325687 -1.7878252224 -0.1190247225
P -2.1146670604 0.1191048242 -0.5273129885
S -1.3269308997 1.3057747705 -1.8845112994
O -2.2198765823 0.6749360861 0.9490656196
C -2.5781378445 2.0488242765 1.2159765606
C -2.1122222796 2.3884333734 2.6157544115
O -3.6408551878 -0.2105559368 -0.8523884267
C -4.0938912799 -0.4744820745 -2.1883128025
C -3.5553302338 -1.7917833788 -2.7077241493
H 2.2973178998 -1.6127065847 -2.9452378716
H 0.7873455718 -1.2361996583 -2.1032760999
H 1.0506242446 -0.6246802735 -3.7363176774
H 1.3998266941 1.165644974 -2.0213288764
H 2.8806149619 0.8374759617 -2.9566350173
H 3.9196591 -1.4169176926 2.4350025915
H 5.0894589336 -0.0737962345 2.5812340578
H 3.4688289486 -0.0119615502 4.4646997096
H 3.2286653566 1.3990863707 3.4185010649
H 2.1167425437 0.0308097643 3.3216763934
H -0.1742832198 -0.4316632138 1.5253458901
H -0.3623469144 -2.1535233892 2.0316632391
H -2.0930772603 2.6874249378 0.4695543841
H -3.6626691938 2.1358974451 1.1164443827
H -1.0277526346 2.3286526923 2.6670507654
H -2.4235024762 3.3992097994 2.8574130803
H -2.5446160135 1.6941053849 3.3300875794
H -5.1812049639 -0.4838531749 -2.1038824856
H -3.77553855 0.3528909014 -2.8316003777
H -3.970317183 -1.9922988792 -3.6900768783
H -2.4690932476 -1.7371360583 -2.7855965561
H -3.8147465447 -2.6010551669 -2.0302655723
*
