! pbe def2-sv(p) def2/J RI DEFGRID1 loosescf d4 GCP(DFT/SV(P)) printgap
%output
    printlevel normal
end
* xyz 0 1
C 1.8637349577 0.286681197 -0.0050143877
C 0.5745188783 -0.522224074 0.0111758962
C -0.6547064987 0.3222884833 -0.0130914917
O -1.7884532297 -0.0975596872 0.0077754153
H 2.7222034306 -0.3782441171 0.0127190589
H 1.9171434377 0.9394868293 0.8623687742
H 1.9209112026 0.897629789 -0.9021171626
H 0.5267672658 -1.1976013621 -0.8474521034
H 0.5225547393 -1.1581088139 0.8989531362
H -0.4737723725 1.4117671204 -0.0653151961
*
