! pbe def2-sv(p) def2/J RI DEFGRID1 loosescf d4 GCP(DFT/SV(P)) printgap
%output
    printlevel normal
end
* xyz 0 1
C 5.5865763477 0.9070536682 -0.2684324164
C 4.283816562 1.5260840875 -0.7357881088
O 3.3129874037 0.5005340631 -1.0385539891
P 2.1795500609 0.07683114 -0.005372781
S 2.8006437962 -0.3079808483 1.8167930621
O 1.4911520365 -1.1126696718 -0.7846976969
C 1.9168714565 -2.4880792787 -0.6600029364
C 0.9056343952 -3.2747611004 0.1500263627
S 0.7520087533 1.6009797634 -0.2172275329
C -0.1623076827 1.2721818162 1.3210483027
S -0.9052175561 -0.3768121351 1.3847216856
P -2.1438768636 -0.30663211 -0.3421681641
S -1.4338289602 -0.5363403285 -2.1498998062
O -2.9376580647 1.0598641713 -0.1117586385
C -3.1458190887 2.073494764 -1.1132473514
C -2.424928479 3.3534478941 -0.738742318
O -3.1499476638 -1.4937019514 -0.0554516931
C -3.7390298818 -1.8627458575 1.21411075
C -4.5909782328 -0.7595564757 1.8043949975
H 5.9572746549 0.2099645783 -1.0147641528
H 6.3191541328 1.6924766954 -0.1135768184
H 5.43474289 0.3738456647 0.6676216462
H 4.4128703132 2.0709260476 -1.6726870599
H 3.8752918373 2.1978182162 0.0244275482
H 1.9817078551 -2.8560564289 -1.6852849921
H 2.9044147012 -2.518678658 -0.1907863506
H -0.084133515 -3.1655992436 -0.289689904
H 1.1843086575 -4.323433647 0.1497298453
H 0.8774345578 -2.909900901 1.1750037227
H -0.9349489021 2.0329739406 1.3970505901
H 0.5243983193 1.3149705155 2.1668123749
H -2.7989794183 1.6939419284 -2.0801797585
H -4.2261644976 2.2264134493 -1.1491203203
H -2.6841290267 4.1231828041 -1.4584213122
H -2.726712245 3.6792785821 0.2529028412
H -1.3463818146 3.2050332367 -0.7594712209
H -4.3353218127 -2.7418679214 0.9637765158
H -2.9348997721 -2.1452077843 1.8979681346
H -3.9730049173 0.0971306246 2.0622921751
H -5.3488032012 -0.4468735023 1.0908043323
H -5.0758416741 -1.1302935826 2.7021861587
*
