! pbe def2-sv(p) def2/J RI DEFGRID1 loosescf d4 GCP(DFT/SV(P)) printgap
%output
    printlevel normal
end
* xyz 0 1
C 4.116274077 2.6419389993 0.5098553778
C 4.6349564651 1.4347552206 -0.2439752875
O 3.570046113 0.7037636162 -0.8801309327
P 2.5020558292 -0.1322954088 -0.0503778355
S 3.2430514812 -1.074292825 1.5053959151
O 1.8436407324 -1.0204264127 -1.1825340082
C 2.4250915306 -2.2676484081 -1.6265079162
C 1.7939518844 -3.4400467275 -0.9026303831
S 0.907365105 1.1774928782 0.3070241859
C 0.0043098965 0.038751462 1.428507082
S -1.702841353 0.556835013 1.6174826285
P -2.3330777892 0.0173956028 -0.352540373
S -1.5505721235 -1.6224819045 -1.077513591
O -2.0264075662 1.2547418523 -1.2781460809
C -2.1214050203 2.6554787038 -0.9209228976
C -3.4783179274 3.0311085216 -0.3674079433
O -3.9194210925 0.0164181624 -0.2761980525
C -4.6796688647 -1.1455573576 0.0973876171
C -4.4471920188 -1.5489079161 1.5391165081
H 3.505889887 3.2609261264 -0.1429223313
H 3.5094253206 2.3193772937 1.3551722252
H 4.9551383779 3.2228600808 0.8793526511
H 5.1642413053 0.7552573724 0.4318409336
H 5.2861243274 1.7209719848 -1.0708346767
H 2.2104555455 -2.3001298205 -2.6956509087
H 3.5062986602 -2.2372963724 -1.4654188252
H 2.1679821225 -4.3663849487 -1.3259508408
H 2.0398179335 -3.4082840782 0.1569492217
H 0.7124407377 -3.4029512965 -1.0151304221
H 0.4681847424 0.0573775964 2.4122432811
H 0.0293126011 -0.9629631985 0.9931319644
H -1.3253837889 2.8747243126 -0.202692825
H -1.9127601235 3.1639403377 -1.8632597848
H -3.649498901 2.5316426429 0.5840508651
H -3.5105685546 4.1052771787 -0.2135888312
H -4.2619394043 2.7424792052 -1.0629605137
H -5.713743531 -0.8439600447 -0.0749041137
H -4.4138371739 -1.9648747731 -0.5781603731
H -4.6001927202 -0.7001594774 2.2005322199
H -5.1382571878 -2.3427301543 1.8039048452
H -3.4289550523 -1.9136868437 1.6647670805
*
