! pbe def2-sv(p) def2/J RI DEFGRID1 loosescf d4 GCP(DFT/SV(P)) printgap
%output
    printlevel normal
end
* xyz 0 1
C 4.0595818357 -2.5668445352 -1.7145354566
C 4.310772397 -1.133659653 -1.2900788053
O 3.2104158804 -0.287548313 -1.7176292347
P 2.1661307031 0.3551953987 -0.7278957083
S 0.8645764225 1.388278902 -1.7618885058
O 3.1295167122 1.1474866729 0.2522615374
C 2.7305186383 1.9926312823 1.3471423982
C 2.7696817221 1.2338864257 2.6584865212
S 1.4028052985 -1.2671570619 0.4201573665
C 0.0230577424 -1.7062210224 -0.6844006277
S -1.5729044791 -1.8269474586 0.1629177913
P -2.0115403527 0.2321476328 0.4939724566
S -0.7408421819 1.261999368 1.5633557177
O -3.4636019619 0.1218053023 1.1306746356
C -3.6579142007 -0.3495569651 2.4806549717
C -5.0225592246 0.116282026 2.9453814826
O -2.299080774 0.9089465183 -0.8935153257
C -3.317705118 0.4867769882 -1.8370825295
C -2.7117080851 -0.3529141409 -2.9443708921
H 3.2179320175 -2.984299498 -1.167771397
H 3.8467784506 -2.6058856089 -2.7791307632
H 4.945504306 -3.1575122784 -1.5043263319
H 5.1893917254 -0.7188917495 -1.7861035466
H 4.4277300156 -1.0517243083 -0.2078076761
H 3.456924471 2.8075453475 1.3374010791
H 1.7312340506 2.3933937389 1.1559132815
H 2.0063625541 0.4592543508 2.6713211143
H 3.7461903418 0.7797324493 2.8003201032
H 2.5699619283 1.926730089 3.4691521756
H 0.2062949285 -2.6955508814 -1.0951501558
H -0.0360374587 -0.9474186053 -1.4691616051
H -3.5877484787 -1.440290076 2.4703854738
H -2.8591278626 0.0571966155 3.1096642377
H -5.7940967584 -0.2796164823 2.291556076
H -5.1919843552 -0.2365162118 3.9572610291
H -5.0709025979 1.2016427478 2.9308427258
H -4.0997146521 -0.0525405908 -1.3001961499
H -3.7141708058 1.4250975225 -2.2278177221
H -1.8327600673 0.1489456452 -3.3439691782
H -2.4263342281 -1.3353308332 -2.5762154673
H -3.4431700168 -0.4729573435 -3.7371459328
*
