! pbe def2-sv(p) def2/J RI DEFGRID1 loosescf d4 GCP(DFT/SV(P)) printgap
%output
    printlevel normal
end
* xyz 0 1
C 3.7964728618 -3.9450806294 -0.1565766611
C 4.0757330197 -2.8250015762 -1.1453647119
O 2.8471944259 -2.2996803979 -1.6911033162
C 2.2294770541 -1.3375365436 -1.0477537489
O 2.626701671 -0.8204458587 -0.0223057853
C 0.9328257258 -0.9472636169 -1.7233337854
C 0.5996672916 0.5210590207 -1.4558857156
H 1.1114509643 1.1880622342 -2.1495345581
C 0.9150400812 0.9326717252 -0.0326789907
O 0.2446983074 0.5102810076 0.8971302619
O 1.8494236169 1.8313437063 0.0523805261
C 2.2021499873 2.333570584 1.3610894374
C 1.2593401793 3.4452647576 1.7910818555
S -1.1906432206 0.8274471786 -1.6476641733
P -2.0324017085 0.2905675779 0.2318244802
S -2.2771045184 1.4988355382 1.7680131435
O -3.4282004047 0.1316442917 -0.5595386242
C -4.6757183197 -0.0520060822 0.110512215
O -1.7679703124 -1.2560456957 0.5803554815
C -1.1158510808 -1.7228216742 1.7589233393
H 3.2013927562 -4.7220447149 -0.628281153
H 4.7372304094 -4.3690614213 0.1785424796
H 3.2580247459 -3.5596316224 0.706521396
H 4.6223818083 -3.1894228071 -2.0148878582
H 4.6202174774 -2.0079296011 -0.6641377226
H 0.1516313856 -1.585610081 -1.2982266293
H 0.9846891132 -1.1470840921 -2.7919507619
H 2.1771073622 1.4997203652 2.0669643091
H 3.2215182414 2.6981110562 1.2368477234
H 0.2469244518 3.0638607505 1.9138936381
H 1.5940072342 3.8486264202 2.74086184
H 1.2486979234 4.2376928514 1.0478074822
H -4.7306974205 0.5939342284 0.9900839043
H -4.7861956415 -1.0939123287 0.4097706968
H -5.4427668004 0.2231970213 -0.6091998538
H -1.2568477164 -1.0108153678 2.5738783292
H -0.0491055225 -1.8418475384 1.5718757878
H -1.5780511 -2.678005201 1.9974472761
*
