  26
        -53.61843279
 C          0.5299157250        1.9319349360        0.3426786393
 C          1.8771289004        2.1912123762        0.4199904200
 C          2.8163611135        1.1800392933        0.1930743692
 C          2.3524849405       -0.1138904529       -0.1178330275
 C          0.9785495667       -0.3603441957       -0.1844855032
 C          0.0589472901        0.6475830857        0.0420789391
 C         -1.3883650694        0.3938013340       -0.0384907817
 C         -2.2361265968        1.2950254791       -0.6831081342
 C         -3.5979810802        1.0756115734       -0.7721285425
 C         -4.1228104286       -0.0668138329       -0.1986995920
 C         -3.3326352395       -0.9896028373        0.4589575510
 C         -1.9758301870       -0.7378746265        0.5224614539
 F         -1.2083028525       -1.6368209038        1.1916972124
 F         -5.4591243067       -0.2967128535       -0.2778595774
 C          3.3082311292       -1.1942210317       -0.3697667433
 O          4.5268557348       -1.0518174283       -0.3079347811
 O          2.7659711475       -2.3596231834       -0.6781383617
 O          4.1128756177        1.4956110850        0.2824428721
 H         -0.1760273170        2.7234734767        0.5383046526
 H          2.2460697648        3.1750038179        0.6600612389
 H          0.6519830509       -1.3580247065       -0.4313484443
 H         -1.8097243353        2.1739753433       -1.1379498571
 H         -4.2477645955        1.7709613442       -1.2766029606
 H         -3.7540107340       -1.8719962344        0.9104261552
 H          3.4407390790       -3.0485917508       -0.8334638814
 H          4.6643757523        0.7003642827        0.1058430968
