! pbe def2-sv(p) def2/J RI DEFGRID1 loosescf d4 GCP(DFT/SV(P)) printgap
%output
    printlevel normal
end
* xyz 0 1
C 4.4059547755 0.5635921692 -2.0296747331
C 4.5969340393 0.2296448632 -0.5636192734
O 3.4409656793 -0.4080192208 -0.000200776
P 2.0675440231 0.3724495684 0.2336263405
S 2.2636875262 2.2259626792 0.8306597641
O 1.3277728979 -0.6289638552 1.2063183749
C 1.3412979003 -0.4613337295 2.6373529267
C 2.7064163544 -0.7596818958 3.2192132007
S 0.9519150808 0.0871220697 -1.5491346149
C 0.5092000658 -1.6635827451 -1.4214876423
S -0.781699483 -2.0424777881 -0.1855257957
P -1.9791596176 -0.3222845557 -0.349790197
S -2.5014096121 0.2761383135 -2.1468507865
O -1.2019945971 0.7224143757 0.5617038596
C -1.4271069994 2.1401876864 0.4191770591
C -2.8019662718 2.538164196 0.9085592292
O -3.1988997569 -0.7026632566 0.5936477227
C -4.2727493392 -1.5519976439 0.1393228689
C -5.4693734708 -1.3157847525 1.0385598435
H 5.3286376184 0.9730786789 -2.4280637812
H 4.134192478 -0.3258468902 -2.5921404244
H 3.613572104 1.3038375803 -2.1423075333
H 4.804765547 1.1381786842 0.0108523828
H 5.3982781051 -0.4955331646 -0.4154423776
H 1.0330805203 0.562696353 2.8706240029
H 0.5834396344 -1.1643818144 2.9866977268
H 2.6527294907 -0.715830337 4.3024077702
H 3.0380070644 -1.7477396375 2.911535544
H 3.4256489303 -0.0198793742 2.8698569864
H 1.3808960548 -2.2510387568 -1.1430787488
H 0.142581094 -1.9359676311 -2.4094520257
H -0.6314981824 2.5996479287 1.009523509
H -1.2936114601 2.4075580942 -0.6351043157
H -2.8941556578 3.6191720533 0.8757860826
H -3.5619246938 2.0961622792 0.2651363522
H -2.952761435 2.1892635302 1.926673303
H -4.4965809037 -1.3020123477 -0.9033950629
H -3.9308009536 -2.5889143154 0.1933330393
H -6.2767323074 -1.9738308922 0.7346896092
H -5.2030686355 -1.5238970702 2.0706952021
H -5.8001865699 -0.2839139916 0.9613187485
*
