! r2scan-3c def2/J RI DEFGRID2 scfconv6 printgap
%output
    printlevel normal
end
%cpcm
    smd true
    smdsolvent "water"
end
* xyz 0 1
C 0.5139401473 -2.2801748318 1.9180731726
C 1.8263628484 -1.630213766 2.3074710634
O 2.1306489152 -0.4880522726 1.4870483966
P 2.5353034994 -0.6410684368 -0.0350063594
S 3.3097479556 -2.3561805986 -0.5727311376
O 3.4672854705 0.6464960097 -0.0934875144
C 4.1161596383 1.0403642255 -1.319242049
C 5.5127831458 0.4562122595 -1.4055667497
S 0.8299897758 -0.0446575281 -1.1664511438
C 0.4396085992 1.4757154233 -0.2459474611
S -0.6693297216 1.2114878008 1.1631759072
P -2.3271604009 0.555840541 0.0361749428
S -2.6270213586 1.4163169896 -1.7048750161
O -3.5501611156 0.6296182257 1.0481168821
C -4.3810490984 1.7966655108 1.1727303931
C -3.633271407 2.9682377277 1.7759594034
O -2.0280221758 -1.0004414246 0.0136395835
C -2.5826139033 -1.8780111046 -0.9843164788
C -4.0808756852 -2.0299926802 -0.8271181084
H 0.5768130544 -2.6490732804 0.8938632791
H 0.3158295649 -3.1161919402 2.5810835633
H -0.3051533749 -1.5682328055 1.9845772325
H 2.6464565051 -2.3497979004 2.2196892533
H 1.7908121094 -1.2234098018 3.3187162407
H 3.5057046726 0.723440869 -2.172042779
H 4.1475896753 2.1312500601 -1.2794371871
H 6.0930501638 0.7501494045 -0.5355411929
H 5.4659824254 -0.6298824925 -1.4438970505
H 5.9988545385 0.8219905041 -2.3042735722
H -0.0435643004 2.1427742102 -0.959125037
H 1.3540382945 1.9075378204 0.1533823507
H -4.763723765 2.0560676039 0.1803623785
H -5.2003971603 1.4676606699 1.8132004477
H -3.1625300943 2.675538971 2.711108184
H -2.8622292133 3.3117493453 1.0874960659
H -4.3279416626 3.7815731229 1.9597998748
H -2.3310510542 -1.4804825783 -1.9731432863
H -2.0590571123 -2.8217967752 -0.8254201779
H -4.4437351656 -2.7725683104 -1.5307435106
H -4.321712282 -2.3405400843 0.1861527068
H -4.5722290768 -1.0792100146 -1.0311546671
*
