! pbe def2-sv(p) def2/J RI DEFGRID1 loosescf d4 GCP(DFT/SV(P)) printgap
%output
    printlevel normal
end
* xyz 0 1
C 2.919569384 -2.9574692874 -1.8328786728
C 3.0655490851 -2.5011102355 -0.395239284
O 3.3987620551 -1.0929149036 -0.3267113067
P 2.328511024 0.0535126201 -0.08148549
S 3.225331051 1.7777546652 0.1049721759
O 1.44223242 -0.4362652515 1.1593339828
C 1.8539667186 -0.1722564338 2.5197624256
C 1.1375601864 1.0420683733 3.0745320066
S 0.9132865681 -0.1392227225 -1.633240916
C 0.1812065785 1.5066904954 -1.454794065
S -0.7395938851 1.7321682052 0.0847937016
P -2.1888331159 0.2328931494 -0.2856667491
S -2.8443854863 0.0946929393 -2.1198064589
O -3.3620066981 0.5411318989 0.7325444392
C -3.1979044057 0.5394420019 2.1728319716
C -3.0114629925 1.9485324944 2.698734663
O -1.4395985733 -1.0557139549 0.2968539235
C -1.5602131265 -2.3546196615 -0.3089595442
C -2.8955581966 -2.9900483983 0.0210075741
H 3.8208151631 -2.7195156542 -2.3908503629
H 2.7604334282 -4.0310977134 -1.8497102574
H 2.074277658 -2.4641818232 -2.3086502084
H 3.9048733447 -2.9993906114 0.093226387
H 2.1481279309 -2.6767422819 0.1721724571
H 1.5893863499 -1.0768707078 3.0703890386
H 2.9387494045 -0.0288402004 2.5448717966
H 0.0621440694 0.9079763021 3.0019930696
H 1.4167369554 1.17754314 4.1143508233
H 1.4148040266 1.9308024283 2.5117314671
H -0.4920377894 1.6342400937 -2.3023499518
H 0.9730871342 2.2560253244 -1.4558746377
H -4.1232462969 0.0987758146 2.5481624002
H -2.3515292574 -0.1012496835 2.4317868937
H -3.8456849723 2.5725929597 2.3907728483
H -2.9664928226 1.920229962 3.7830846923
H -2.0915735174 2.3848992126 2.3140466932
H -1.4367664525 -2.250694805 -1.3915050045
H -0.7254560139 -2.9225568618 0.1043947286
H -3.7008699972 -2.3756777326 -0.380996042
H -2.946574463 -3.9761653709 -0.4294148789
H -3.0211148592 -3.0771694857 1.0970463622
*
