! pbe def2-sv(p) def2/J RI DEFGRID1 loosescf d4 GCP(DFT/SV(P)) printgap
%output
    printlevel normal
end
* xyz 0 1
C 1.9299613234 -3.0565192378 0.3316658513
C 2.9883323311 -2.0063938291 0.0347793714
O 2.3776846226 -0.8345734567 -0.5384647354
C 2.2488738691 -0.7725529978 -1.8546674328
O 2.7169124247 -1.5784217318 -2.624656528
C 1.4597612424 0.4479859288 -2.2879728129
C 0.326424456 0.7597200649 -1.3182649714
H -0.2672387298 1.6037622793 -1.6847646932
C 0.8190929794 1.1116326377 0.0716255184
O 0.3020532847 0.6563148033 1.0728022685
O 1.7798096195 1.9910583149 0.0518684594
C 2.2922503533 2.4703807555 1.3148110528
C 3.2760689324 1.4850291157 1.9218053063
S -0.789633529 -0.6772563305 -1.1515002725
P -2.1019054625 0.1072984443 0.3382378699
S -2.2896116892 2.0437105691 0.5572172525
O -3.4935690342 -0.4225004821 -0.2377949678
C -3.7590404431 -1.809652331 -0.4998285832
O -2.014907681 -0.8104872961 1.6448582241
C -1.3937960733 -0.4940381812 2.8898360795
H 1.4762622373 -3.401465317 -0.5947996635
H 2.3866289394 -3.8981485275 0.8414532102
H 1.1506195571 -2.633211143 0.9612588378
H 3.7340032919 -2.3889305625 -0.6673826239
H 3.4704552984 -1.6555482129 0.9478687063
H 1.0697268742 0.2579278869 -3.2875241535
H 2.1362539679 1.3048634193 -2.32574848
H 2.7743326211 3.4139860135 1.0602249747
H 1.4464289868 2.6444876707 1.9857471901
H 2.7685962133 0.5554417345 2.1665921134
H 4.079694511 1.2780961022 1.2203282685
H 3.6919196565 1.910224286 2.8291979131
H -4.7431299439 -1.8289591572 -0.9611861994
H -3.7571142216 -2.3715967299 0.4324396214
H -3.0079950134 -2.2111191021 -1.1813832299
H -1.9788006344 -1.0101690769 3.6482125721
H -1.4118724713 0.5825607315 3.0593143541
H -0.3639728704 -0.8449251458 2.8865124418
*
