! wb97x-v def2-tzvp def2/J RIJCOSX DEFGRID2 scfconv7 GCP(DFT/TZ) printgap
%output
    printlevel normal
end
* xyz 0 1
C 1.252573010114239 -0.2907681589876883 0.003341293432338118
C 0.011246124501491563 0.5680520077704433 -0.050101662872783774
O -1.1422164505610732 -0.2972284678064555 0.04547089476362197
H 1.3016510496991553 -0.8475219321222013 0.9445168342722433
H 1.2688718410007453 -1.0045164308616437 -0.826388052903606
H 2.144474008592208 0.33893838065495574 -0.06892192358715768
H -0.023982656726534945 1.1330839285338092 -0.9917001706127397
H 0.006833407434350559 1.2881507905105765 0.7796930898555866
H -1.9260981854451886 0.26467933429611784 0.009873189350805939
*
