! pbe def2-sv(p) def2/J RI DEFGRID1 loosescf d4 GCP(DFT/SV(P)) printgap
%output
    printlevel normal
end
* xyz 0 1
C 5.7130647716 -0.341768577 -0.7128495496
C 4.5966020311 -1.1897855397 -1.2845292436
O 3.4408287453 -1.2102892811 -0.4215074186
P 2.5274783786 0.0651011709 -0.1952136345
S 2.2785395609 1.1913658641 -1.7881653421
O 3.2226117808 0.7733111698 1.0446392875
C 2.931882414 2.1270573503 1.4312880924
C 1.5341486544 2.2669502206 1.9985213698
S 0.8551698013 -0.9130997726 0.620608163
C 0.0457542159 -1.2964829768 -0.9758830827
S -1.6688662061 -1.7725111994 -0.7404881801
P -2.5041849122 0.1301021971 -0.2141112101
S -1.3651597174 1.673519961 -0.6114003754
O -2.9622079631 -0.0139526068 1.3017620454
C -2.0410984914 0.0699816806 2.4055772624
C -2.8571899012 0.2071132534 3.6748138558
O -3.8810907182 0.2182437968 -0.9664729916
C -5.09379751 -0.4849718593 -0.591958482
C -4.9347860025 -1.9884597804 -0.6528847656
H 5.4122191984 0.7049405475 -0.6991254872
H 5.9405074916 -0.6558019909 0.3023563382
H 6.5981086782 -0.4463026961 -1.3326237421
H 4.8823903609 -2.2396556331 -1.3608164809
H 4.2883132858 -0.8119175447 -2.2648128567
H 3.6945498402 2.3546023352 2.1774193997
H 3.057117916 2.7743060524 0.5571032848
H 0.7950901578 2.1160694759 1.2109198897
H 1.3722766587 1.5322869515 2.7837196958
H 1.4071491484 3.2657438016 2.4035712221
H 0.542942839 -2.1459204723 -1.4384894206
H 0.1009272461 -0.4059204615 -1.6073888225
H -1.4270020526 -0.8354399871 2.4163404251
H -1.3890866245 0.9351328027 2.2498458725
H -2.1842596379 0.2655054905 4.523664335
H -3.4621134629 1.1084891912 3.6342136234
H -3.5100826478 -0.6525584227 3.7925003409
H -5.3785255163 -0.1598802138 0.4098665324
H -5.8205995532 -0.1259497056 -1.3221196981
H -4.5906276955 -2.2955628357 -1.6369992537
H -4.2111209038 -2.3234746629 0.0879508591
H -5.8934671908 -2.4543306416 -0.4469318515
*
