! pbe def2-sv(p) def2/J RI DEFGRID1 loosescf d4 GCP(DFT/SV(P)) printgap
%output
    printlevel normal
end
* xyz 0 1
C 3.732063444 1.7186764493 -1.7528847905
C 2.4135021892 1.0599179124 -2.0953994144
O 2.2314690609 -0.1851596761 -1.3929518458
P 2.1082909497 -0.283337513 0.1812444438
S 1.1516988542 1.1835612186 1.0797694989
O 3.6225386381 -0.4215022472 0.6417263493
C 4.0340923723 -0.2461353635 2.0071548911
C 3.5002713585 -1.3433580197 2.9051849758
S 1.4102215828 -2.2642388123 0.321645557
C -0.2484960546 -2.1031300429 -0.3912151203
S -1.5091813312 -1.5139628338 0.7952285166
P -2.0864038194 0.299554628 -0.1189070852
S -1.1335789 0.8505035146 -1.7471518403
O -2.0577785246 1.2370028973 1.149587108
C -2.0120013931 2.6752841127 1.0786282388
C -3.2286146639 3.2582821707 0.3918482365
O -3.6606168037 0.1655873672 -0.3370293729
C -4.2465588224 -0.3657629098 -1.5347866013
C -3.951177872 -1.841319243 -1.7157081831
H 3.8727709164 2.5889552361 -2.3862181409
H 3.7280272507 2.0358120805 -0.7105932838
H 4.550241676 1.0197700529 -1.9058322881
H 2.3598053449 0.7717854772 -3.1461407301
H 1.5716869841 1.7185013142 -1.8584615102
H 5.1235314804 -0.2587811101 1.9564664751
H 3.6868297629 0.7340139088 2.3506257176
H 3.9228972705 -1.2347431763 3.8988803226
H 2.4148872112 -1.2715719542 2.9735992096
H 3.7596568764 -2.3197861355 2.5038645596
H -0.529885743 -3.1076962835 -0.6947629423
H -0.213157484 -1.4190548923 -1.2433166257
H -1.9476084873 2.9792308086 2.1243729915
H -1.0895305812 2.9632487797 0.56388436
H -3.2410537926 2.9640351097 -0.6573156108
H -4.136027282 2.8984793778 0.8698969174
H -3.189158312 4.3412919211 0.4538315335
H -5.3141477833 -0.1822244548 -1.4066657052
H -3.8699154313 0.2080667049 -2.3879953535
H -4.2130778643 -2.3917225888 -0.8156322704
H -4.5269257034 -2.2221210352 -2.5531720674
H -2.8913018766 -1.9852969621 -1.9222654294
*
