! pbe def2-sv(p) def2/J RI DEFGRID1 loosescf d4 GCP(DFT/SV(P)) printgap
%output
    printlevel normal
end
* xyz 0 1
C -2.9271091155 -0.3473404666 0.0001830719
C -2.6775817568 1.0346951024 5.53398e-05
C -1.3952585275 1.5069950878 -0.0001201715
C -0.2987441447 0.6180476538 -0.000183528
C 1.0311382193 1.0761336473 -0.0001330875
C 2.0803017277 0.1887718776 -2.2827e-06
C 1.8276966088 -1.1978786971 -4.54127e-05
C 0.5446147109 -1.6649675249 -0.0001353269
C -0.5523606259 -0.7793921932 -0.0001351941
C -1.8870574703 -1.2341937443 5.11508e-05
O 3.3502647496 0.6777710836 0.0002684618
H -3.9471089999 -0.7014718144 0.0003342017
H -3.5104789745 1.7220932436 8.74639e-05
H -1.1995119634 2.5694173815 -0.0001968514
H 1.2371493167 2.1355975226 -7.8841e-05
H 2.6594370347 -1.8878718493 6.7171e-05
H 0.3544942382 -2.728177883 -0.0001223231
H -2.0716386458 -2.2988134729 0.0001128105
H 3.9941741358 -0.0465992662 0.0010814016
*
