! pbe def2-sv(p) def2/J RI DEFGRID1 loosescf d4 GCP(DFT/SV(P)) printgap
%output
    printlevel normal
end
* xyz 0 1
C 5.4527818977 -0.7097491671 -0.9157636857
C 4.7860114981 -0.2092551645 0.3508024342
O 3.4515999224 -0.7372903766 0.4922099366
P 2.1736754463 -0.0838925401 -0.1899432948
S 2.051395194 -0.129554666 -2.1477753068
O 2.1663180474 1.3710724016 0.4569856426
C 1.8794766253 2.5930990261 -0.2410807227
C 3.1593115622 3.3749080939 -0.4594559548
S 0.8060197698 -1.2505910826 0.9033954552
C -0.2348791779 -1.9093740687 -0.4528842079
S -1.9813272161 -1.9018681197 -0.0129435464
P -2.1841951955 0.1960731719 0.2914831959
S -1.150442451 1.3444915655 -0.9124883562
O -1.8122032808 0.4826106668 1.7948848495
C -2.0591633978 -0.3838336304 2.9299576409
C -3.5150379948 -0.7723091694 3.0642194514
O -3.7501905041 0.4537275807 0.2633605537
C -4.4775943871 0.7243803512 -0.9476555952
C -4.4835254775 -0.4575296144 -1.8954374629
H 5.4608615494 -1.7961661551 -0.9278670247
H 4.9149750339 -0.3592680061 -1.7944138332
H 6.4732255348 -0.3416935569 -0.9531454884
H 4.7415857224 0.8830259898 0.3714859507
H 5.3053638497 -0.5699652523 1.2407163387
H 1.3963188759 2.3611549428 -1.1954965227
H 1.1730870246 3.1344073429 0.3908029536
H 3.8223987894 2.8252067262 -1.1249947744
H 2.9155676272 4.3289265729 -0.9154047084
H 3.6612094926 3.5468206297 0.4890492739
H 0.0324701683 -2.9477211764 -0.6315833185
H -0.0659282162 -1.2988818363 -1.3446248906
H -1.4196450695 -1.2654996279 2.8258677195
H -1.7193445652 0.2160309587 3.7753908589
H -4.1401902824 0.1161839923 3.0941525487
H -3.8198250272 -1.3899051565 2.2217438236
H -3.6459255275 -1.3365724786 3.9823606495
H -5.4821178092 0.9642421517 -0.5964206169
H -4.0326723007 1.6007753057 -1.4294588484
H -3.4822179537 -0.6249242357 -2.2895101471
H -4.8131206602 -1.3561175121 -1.3804702768
H -5.1537036369 -0.2484154185 -2.7230932818
*
