! pbe def2-sv(p) def2/J RI DEFGRID1 loosescf d4 GCP(DFT/SV(P)) printgap
%output
    printlevel normal
end
* xyz 0 1
C 4.0075632727 -3.2115109963 0.8890727943
C 2.8605662912 -2.2387503908 1.072688935
O 2.4889920363 -1.7387989312 -0.2262946013
C 1.6514932531 -0.7399062161 -0.2886736843
O 1.2023866144 -0.1458159813 0.680172192
C 1.3254672507 -0.3315258876 -1.707370247
C 0.4581532135 0.9186898475 -1.6729958609
H 0.4476912955 1.3983979343 -2.6563277739
C 1.0360830126 1.9169827425 -0.6751473142
O 2.2236378509 2.1574833417 -0.6411377251
O 0.1233461379 2.5111049223 0.0581411877
C 0.5624731934 3.5303178318 0.9792973417
C 0.6953978517 4.8722835721 0.2780903598
S -1.3096277983 0.5906098698 -1.374216527
P -1.524250433 -0.7796163854 0.2368938415
S -0.687703808 -2.5508449783 0.1393890602
O -1.3494943833 -0.0472957646 1.6253142913
C -2.138488729 1.1041892955 1.9822179794
O -3.1229690452 -0.8883946575 0.1888053848
C -3.7977158574 -1.610809577 -0.8462774467
H 4.858596498 -2.7051090648 0.4436811581
H 4.2924685931 -3.6136162125 1.8553731291
H 3.6981140386 -4.0233831399 0.238274205
H 3.1343171112 -1.387708219 1.7046800021
H 1.9795488158 -2.7248641886 1.5053170384
H 0.8303840764 -1.1579679842 -2.2198196197
H 2.2669980775 -0.1225696755 -2.2184148641
H -0.2093758919 3.5569892279 1.7481653867
H 1.5161766767 3.213994068 1.41076275
H -0.242029213 5.1366118414 -0.2033808494
H 0.9503352519 5.6317363013 1.0096672219
H 1.4812978614 4.8267775308 -0.4722156168
H -1.6924414512 1.4751504883 2.9014560914
H -3.1717219318 0.80264015 2.1443509752
H -2.0851210175 1.8530278917 1.1922055348
H -3.3012008658 -2.5668629904 -1.0200445432
H -3.8058734343 -1.0216267475 -1.762168402
H -4.8090766806 -1.7698131918 -0.4808943873
*
