! pbe def2-sv(p) def2/J RI DEFGRID1 loosescf d4 GCP(DFT/SV(P)) printgap
%output
    printlevel normal
end
* xyz 0 1
C 2.7547847503 2.1629403472 -2.0536940945
C 3.3149528388 1.2450576076 -0.9870096897
O 2.2924210732 1.0435659705 0.0244966269
P 2.0980682284 -0.320264256 0.7892444487
S 0.6393878466 -0.1358215435 2.0800108912
O 3.5664391759 -0.5760363736 1.3397683306
C 4.0839057485 -1.8406698735 1.7948994624
C 3.2209619388 -2.4755714204 2.8648760535
S 1.8819568969 -1.8567702582 -0.67836256
C 0.11065024 -1.6912904911 -0.942144837
S -0.3031317663 -0.0631547387 -1.6674809903
P -2.1508713324 0.3029440082 -0.725929719
S -2.694715491 -0.9036648955 0.7273555272
O -3.096545201 0.2434562482 -1.994579425
C -4.516360574 0.0230767829 -1.8853104654
C -5.2180214802 1.209814474 -1.2597563373
O -2.131940062 1.8710232876 -0.4588554385
C -1.2950897766 2.551438331 0.4897635359
C -1.8886396881 2.5197313634 1.883974068
H 2.4549232434 3.1088766319 -1.6121632876
H 3.5180442575 2.3418781762 -2.803934972
H 1.8878634568 1.7050736922 -2.5242792183
H 4.1768199696 1.6867795138 -0.4841794744
H 3.5946146577 0.2741202038 -1.4055281228
H 4.1756995437 -2.5017647095 0.9289521585
H 5.0739877628 -1.5880240341 2.1783223184
H 2.2417098967 -2.7264078282 2.4587884121
H 3.6971838778 -3.3825042635 3.2230557142
H 3.0800960487 -1.7893048829 3.6968089081
H -0.4211918052 -1.7891113583 0.0093798001
H -0.1714507268 -2.4787395179 -1.6364875526
H -4.8347355987 -0.1436139372 -2.9149891073
H -4.6816655469 -0.8808672983 -1.2901687281
H -4.9813416555 2.1180253339 -1.8076316623
H -6.2908221959 1.0450864609 -1.2725861243
H -4.8884309224 1.3262073899 -0.2277686669
H -0.2958670047 2.103864259 0.4850647422
H -1.2381306154 3.5716311986 0.1053441282
H -1.9070280922 1.4996915087 2.2638684211
H -1.2741619972 3.12070796 2.5465555073
H -2.9016377792 2.9126068946 1.8718620274
*
