! wb97x-v def2-tzvp def2/J RIJCOSX DEFGRID2 scfconv7 GCP(DFT/TZ) printgap
%output
    printlevel normal
end
* xyz 0 1
C 1.1970620156041192 -1.2148826736470304 -1.6289757010446207e-05
C 1.866409020795892 -6.041877987601965e-06 -5.9299043152536844e-05
C 1.1970700207695057 1.2148749565305164 -4.2926226952779814e-05
C -0.1917379041751656 1.2005442060149627 2.05852205650041e-06
C -0.9104765588599872 2.9599812822849327e-06 1.4114538398276082e-05
C -0.19174578635487372 -1.2005427198493526 1.2761637078048739e-05
Cl -1.031566761591196 -2.7253485639712838 5.017615285232295e-05
Cl -2.6411492274734347 7.003455808599577e-06 5.106237424040598e-05
Cl -1.0315475568321724 2.7253563983532403 -1.281297139506597e-05
Cl 3.6161711450917706 -1.1763925153235707e-05 -8.733974286883154e-05
H 1.734559955850126 -2.154707709011709 -1.2935245076361464e-05
H 1.7345741154010097 2.1546963471765093 -7.524543650236647e-05
*
