! pbe def2-sv(p) def2/J RI DEFGRID1 loosescf d4 GCP(DFT/SV(P)) printgap
%output
    printlevel normal
end
* xyz 0 1
C 5.4558136365 -0.5226596867 -0.8456232504
C 4.3999724649 -1.2337590362 -0.021113238
O 3.5078832904 -0.2916300042 0.6043523384
P 2.1399238949 0.1733417268 -0.0623413362
S 2.2611499798 0.9332319683 -1.8699100962
O 1.5847102976 1.104577045 1.0900734865
C 1.7717864832 2.532978539 1.075807019
C 3.231155308 2.9059814056 1.2194662989
S 0.9567843907 -1.5614871302 0.14060675
C -0.0606042788 -1.4727038581 -1.3797214876
S -1.8089763954 -1.7578540317 -1.0604440194
P -2.355309629 0.11266042 -0.1889571054
S -1.1391953307 1.5905400822 -0.6100917524
O -2.5880134917 -0.1655209089 1.362171072
C -1.5180373698 -0.3190597438 2.3114954097
C -2.0703089421 -0.0063896914 3.6875380699
O -3.8135359174 0.4123571173 -0.6861224449
C -5.0230857356 -0.2290118075 -0.2048716316
C -5.023409267 -1.7229097074 -0.4438636436
H 6.0084170141 0.1756273757 -0.2233192718
H 6.1409595803 -1.2560200812 -1.2583031108
H 4.9902526657 0.0261104143 -1.6614287787
H 4.846980915 -1.7794147519 0.8120034574
H 3.8197960589 -1.9253012947 -0.6392676438
H 1.3501691565 2.9267449959 0.1446502463
H 1.1739644828 2.8834999159 1.9182762184
H 3.6481257096 2.4464293911 2.1117384511
H 3.7856897114 2.5558904744 0.3493345316
H 3.3224365198 3.9854724223 1.2864059859
H 0.2538905376 -2.2701007383 -2.0480129435
H 0.0875606412 -0.4908870663 -1.8372202053
H -1.1520300576 -1.3482794062 2.252407069
H -0.7029473087 0.3622886188 2.0442080984
H -2.435686879 1.0164298485 3.7202077505
H -2.8876681542 -0.6820112109 3.9217027995
H -1.2808884217 -0.1287066158 4.421745166
H -5.1286693251 0.0001496469 0.8566792991
H -5.807464135 0.2711497012 -0.774796282
H -4.8444658034 -1.9405896413 -1.493673623
H -4.2462619143 -2.2024451692 0.1482419978
H -5.9882571097 -2.1273428661 -0.1537937269
*
