! r2scan-3c def2/J RI DEFGRID2 scfconv6 printgap
%output
    printlevel normal
end
* xyz 0 1
C 5.6489667288 0.7383416184 -1.380945963
C 4.4614948018 1.1483435372 -0.5334279448
O 3.3764449025 0.2393052141 -0.8145547623
P 2.2167006661 -0.0339873398 0.2317537467
S 2.8121424043 -0.3644246107 2.0725588043
O 1.405293891 -1.1924399796 -0.4709532195
C 1.6156443873 -2.5845805902 -0.1629758683
C 2.9764114719 -3.0578539824 -0.6256436073
S 0.9188341067 1.6054729663 -0.0417878455
C -0.0288994651 1.3717458091 1.4874239121
S -0.9334439328 -0.2026013107 1.5448068809
P -2.0727877083 -0.0487822826 -0.2425172114
S -1.343391083 -0.5150101287 -1.9922509695
O -2.5648661578 1.4623763211 -0.0696458024
C -2.9638274742 2.2587031498 -1.202637356
C -4.3288115966 1.8410410234 -1.7097192946
O -3.2980375103 -1.0023957837 0.0759786963
C -4.1517480234 -0.8357186434 1.236783768
C -5.5471161593 -1.2899678161 0.8595792172
H 5.3733109422 0.7464653394 -2.4315014575
H 6.4616991382 1.43788307 -1.2155459219
H 5.9765075435 -0.2617550225 -1.1109948437
H 4.1258656102 2.1593108726 -0.7782530216
H 4.6941799145 1.0945984727 0.5356672757
H 1.4990516669 -2.7201550996 0.9177541515
H 0.8041691209 -3.0900906196 -0.6896515508
H 3.0636209944 -4.1263159573 -0.4554607162
H 3.1053682474 -2.8446543336 -1.6836160994
H 3.7543183848 -2.5426999631 -0.0627154651
H -0.7269058951 2.2012110681 1.5580390263
H 0.6530143789 1.3486078467 2.3381576456
H -2.9630155547 3.2817986062 -0.8243911434
H -2.2092933109 2.1511056744 -1.9879875652
H -4.6160202645 2.4791627602 -2.5393614644
H -4.2885342925 0.8082086052 -2.0554413694
H -5.0694692859 1.9245748115 -0.9184348434
H -3.7343054741 -1.4482705842 2.0389477503
H -4.1386099258 0.2141768265 1.5394460124
H -6.1924599938 -1.2156320545 1.7289037471
H -5.9447869574 -0.6695321685 0.0611635197
H -5.5203449013 -2.3206652986 0.5179276421
*
