! pbe def2-sv(p) def2/J RI DEFGRID1 loosescf d4 GCP(DFT/SV(P)) printgap
%output
    printlevel normal
end
* xyz 0 1
C 4.8291426596 0.7981660241 0.3759602768
C 3.6038890467 1.2935083382 -0.3616685271
O 2.7722112089 0.1946549017 -0.7933587245
P 1.9431811128 -0.6682795057 0.2369479111
S 1.3840636874 0.2298205348 1.8915795447
O 2.8841247334 -1.9322075595 0.4506442868
C 2.5730275988 -2.9822916278 1.3886612985
C 3.3292076878 -2.7786062399 2.6875936606
S 0.4544435381 -1.4616065106 -1.0668500521
C 0.0795462151 0.0243414635 -2.040466858
S -0.3405836067 1.4687828681 -1.0338133958
P -2.2125040772 0.7668503335 -0.3618035076
S -3.2702124148 -0.2865943067 -1.6386044887
O -2.89841073 2.062152257 0.2500703432
C -3.0513980171 3.332707188 -0.4113914404
C -3.6553053801 3.2126207398 -1.7951416112
O -1.844342396 -0.0101412177 0.9648384209
C -2.6128679279 -1.0990945538 1.5183324693
C -1.6700564761 -2.2101347087 1.9348810717
H 5.3720154628 0.0827721009 -0.2358648558
H 5.473861572 1.6388490061 0.6119468097
H 4.526304212 0.3112010956 1.3020295413
H 3.8632234706 1.8068614242 -1.2882539475
H 3.0055942999 1.953420889 0.2748391475
H 1.4939562098 -3.0058932457 1.5647870831
H 2.8790046599 -3.9029485665 0.8885478911
H 4.3965929384 -2.7249965831 2.4933353119
H 3.0100738842 -1.8547730605 3.1654728207
H 3.1257850125 -3.6105852687 3.3539081487
H -0.7743098045 -0.2412836754 -2.6661972907
H 0.9448805788 0.2957797146 -2.6390944767
H -3.7025692298 3.8933719962 0.2617504136
H -2.0680446108 3.8094160888 -0.4563501174
H -3.8263074621 4.2053526928 -2.1989106123
H -2.9789623063 2.6720475422 -2.456042163
H -4.5989453319 2.6737249398 -1.7521802757
H -3.1523866694 -0.6939487998 2.3768653554
H -3.3287264316 -1.4463426162 0.7650154545
H -2.2320323142 -2.9771754211 2.4573429661
H -1.193859305 -2.6472745468 1.0594453506
H -0.9040199224 -1.8094224675 2.5948996103
*
