! pbe def2-sv(p) def2/J RI DEFGRID1 loosescf d4 GCP(DFT/SV(P)) printgap
%output
    printlevel normal
end
* xyz 0 1
C 2.465308797 -3.8476886962 -1.961814249
C 2.8210423226 -3.5453727347 -0.5148464399
O 2.8655575821 -2.1209614487 -0.2913805236
C 1.7472002268 -1.4939303604 -0.0221832749
O 0.6651308669 -2.0355386592 0.097143576
C 1.9502652242 -0.006708976 0.1458840383
C 1.1082983839 0.8160370329 -0.8496992795
H 1.6979437669 1.0673010815 -1.7323242547
C 0.639554121 2.0847106962 -0.1524179509
O -0.4996291066 2.2465982968 0.225819343
O 1.6262348861 2.9249963747 0.0206227657
C 1.3576303931 4.1680546051 0.7075126601
C 0.822246962 5.213727015 -0.2563174795
S -0.3690813175 -0.0209813671 -1.5280917195
P -1.5072542446 -0.3183141396 0.2160090642
S -0.9036581695 -0.1527847469 2.0833354368
O -2.7064837637 0.6541098537 -0.1977300779
C -3.7934676124 0.9192473753 0.6916639428
O -2.2674553084 -1.7078161458 -0.0424368733
C -1.9616656454 -2.9636551852 0.5576523716
H 2.4726100478 -4.921393345 -2.1171373123
H 1.4740590635 -3.4628089602 -2.193039297
H 3.1855863999 -3.3831374863 -2.6290641997
H 3.8250899533 -3.8904316781 -0.2692538956
H 2.0884046798 -3.9837838192 0.1683630688
H 3.0047340325 0.2343286713 0.0268139784
H 1.6322000761 0.2268831772 1.1670650755
H 0.6416386367 3.9738185535 1.5108956655
H 2.3240893956 4.459097761 1.1182387527
H 1.5189195777 5.3582920172 -1.0771461907
H -0.1382851494 4.8971306272 -0.6569285585
H 0.6903021976 6.1521168778 0.2719683888
H -4.4498269275 0.0505975235 0.750389363
H -4.3174867462 1.7715145154 0.2668556236
H -3.4125685351 1.164109711 1.6853241452
H -2.9114564228 -3.4815823251 0.6717929887
H -1.4885001089 -2.809874336 1.5289535913
H -1.2893756797 -3.5211427711 -0.0905986337
*
