! r2scan-3c def2/J RI DEFGRID2 scfconv6 printgap
%output
    printlevel normal
end
* xyz 0 1
C -0.6088105014 0.0043760181 -0.468199255
C 0.6090738586 0.0217233177 0.4676849849
O 1.8266813147 -0.0761872276 -0.2329915843
O -1.8275142261 -0.0385365933 0.2360270991
H -0.5813819143 -0.9012311572 -1.0787663817
H -0.5809183353 0.8763076781 -1.1366060857
H 0.5698098249 -0.8488228336 1.1266751091
H 0.5934614984 0.9290602651 1.0876274538
H 1.9285127992 0.6922817659 -0.8123517883
H -1.919400968 0.7624539903 0.7713659793
*
