! pbe def2-sv(p) def2/J RI DEFGRID1 loosescf d4 GCP(DFT/SV(P)) printgap
%output
    printlevel normal
end
* xyz 0 1
C 5.4068323479 -1.0769527133 -1.6893008738
C 4.0137347642 -1.6590774302 -1.8327778734
O 3.3033856221 -1.6270533287 -0.5792328274
P 2.4032333954 -0.4012428408 -0.1200806937
S 3.2799812632 1.3516259668 0.0369833744
O 1.8034542777 -0.9796751962 1.2204519814
C 2.2378574418 -0.5872504114 2.542923306
C 1.0277579656 -0.226447738 3.3804464123
S 0.7679957692 -0.4937425751 -1.4573868417
C 0.0871160057 1.1398380615 -1.0612075143
S -0.865133427 1.1566021953 0.4708758143
P -2.7317935337 0.4439159289 -0.3019057991
S -2.9356017072 0.5668093873 -2.2421478967
O -3.826449729 1.2578208914 0.4739837475
C -3.895453496 1.344839407 1.9246974427
C -3.4753870794 2.7260062698 2.3848287067
O -2.9440229039 -1.0131854144 0.3121973856
C -2.2988939958 -2.1971654494 -0.1920549064
C -1.2600075846 -2.6932363093 0.7947807496
H 5.3530040768 -0.0241222392 -1.4213478161
H 5.9543458791 -1.6064055789 -0.9145479185
H 5.9340225532 -1.1745471613 -2.6328509346
H 4.0516359297 -2.7182861172 -2.0941313969
H 3.4363799095 -1.1192675869 -2.5890316923
H 2.7719929308 -1.4439557067 2.957912668
H 2.9231433945 0.2621030484 2.4530327239
H 0.3428269204 -1.0678537487 3.4295732894
H 1.3563468079 0.0279125006 4.382827764
H 0.5111018132 0.6257470845 2.9454590907
H -0.5639041467 1.419257033 -1.8905993936
H 0.9085797409 1.8467768692 -0.9368283355
H -4.9418739761 1.1481799182 2.1626549668
H -3.2658869408 0.5680778037 2.3610478839
H -3.616356833 2.7990083679 3.4585004225
H -2.4290304243 2.9052988914 2.1500591541
H -4.0802182586 3.4816302559 1.8914237965
H -3.1010165032 -2.9274334388 -0.3179694604
H -1.855662454 -1.9822117313 -1.1700412063
H -0.8403274163 -3.624315718 0.4277748619
H -0.4560220296 -1.9701357594 0.9080640554
H -1.7214492538 -2.8638057171 1.7634318385
*
