! pbe def2-sv(p) def2/J RI DEFGRID1 loosescf d4 GCP(DFT/SV(P)) printgap
%output
    printlevel normal
end
* xyz 0 1
C 2.3473644528 -0.0182526751 0.2275279696
N 0.9030482258 -0.0171251285 0.2795339333
C 0.3530083343 1.2375356934 -0.2126923555
C -1.1887204984 1.1447155345 -0.2609080272
N -1.6881321445 0.0128581742 0.4964239898
C -1.1857316121 -1.2245716886 -0.07868478
C 0.317863179 -1.1412315554 -0.4324484428
H 2.7215964653 0.8217496787 0.8107021844
H 2.7348000031 0.0687640129 -0.8006937552
H 2.7188181273 -0.9434836215 0.6644562185
H 0.6690435887 2.0239942105 0.4777933822
H 0.7501346307 1.4840891145 -1.2150330038
H -1.6368783397 2.0557206632 0.1377149338
H -1.529951337 1.0199084317 -1.2924347602
H -1.3398153348 0.0932842603 1.4474099268
H -1.3684575055 -2.0262902604 0.6364278617
H -1.7671014517 -1.4321483331 -0.9823300995
H 0.8313074927 -2.0517497083 -0.1197546938
H 0.4548676183 -1.0330347035 -1.5241678573
*
