! r2scan-3c def2/J RI DEFGRID2 scfconv6 printgap
%output
    printlevel normal
end
* xyz 0 1
C 5.5633566808 -0.9294955446 -1.411451472
C 4.1595379628 -1.1082453624 -1.9565977636
O 3.2484254204 -1.4911412677 -0.9058077168
P 2.3522087902 -0.4316113907 -0.1299862644
S 3.2925971685 1.1174905888 0.6258693593
O 1.6175066303 -1.376954892 0.9022528889
C 2.0659305138 -1.532180682 2.2727312877
C 1.2037848502 -0.7100262137 3.208475901
S 0.8189675368 -6.3669e-05 -1.5213033992
C 0.173820024 1.4634332519 -0.6616774895
S -0.8566119336 1.0377054173 0.7570818404
P -2.5085846596 0.2910967525 -0.3710881952
S -2.8262148407 1.1569072377 -2.0972570862
O -3.736260145 0.3446228506 0.6365803206
C -4.5814666124 1.5011773378 0.7636591257
C -3.8519227992 2.685157408 1.3650485736
O -2.2678554802 -1.2561667397 -0.5531281657
C -1.724401975 -2.1860144097 0.414123876
C -2.4465733251 -2.1458198154 1.7433268219
H 5.5890898784 -0.1093122689 -0.6973225347
H 5.8884862475 -1.8390518871 -0.9143484826
H 6.2388888175 -0.7058037169 -2.2307452071
H 4.1123402787 -1.9280607473 -2.6757656046
H 3.8014344283 -0.1894524089 -2.4299448374
H 1.9767451277 -2.6005342409 2.4735983178
H 3.113827785 -1.2292714366 2.3427352262
H 0.1596472076 -0.9895173899 3.1058017597
H 1.525182532 -0.8827201578 4.2304236086
H 1.3040080662 0.3485916066 2.9777965717
H -0.4229270745 2.012755635 -1.3904304993
H 1.0071028122 2.0613697972 -0.2903711986
H -4.9727764301 1.7538831194 -0.2267710963
H -5.393088961 1.1590799547 1.4072569357
H -3.3651745406 2.4001840947 2.294205977
H -3.0978692791 3.0508725656 0.6698698213
H -4.5630124274 3.4815019341 1.5599285756
H -1.84124232 -3.1517880593 -0.0802381085
H -0.6598002576 -1.967867708 0.5366915359
H -2.3041620158 -1.1783021497 2.2214061267
H -3.5111634369 -2.3090937051 1.5975678338
H -2.0480840039 -2.9251338075 2.3861065157
*
