! pbe def2-sv(p) def2/J RI DEFGRID1 loosescf d4 GCP(DFT/SV(P)) printgap
%output
    printlevel normal
end
* xyz 0 1
C 2.1767376063 -0.5456953871 -3.4244179933
C 2.3922660322 -1.1786995439 -2.066954225
O 2.7434070802 -0.1255622877 -1.1328274921
P 2.6627559064 -0.3251184732 0.4295825725
S 3.4433218368 1.1842476703 1.3958358795
O 3.3682873354 -1.7362483274 0.6223103426
C 3.8667668714 -2.1896285914 1.8961104778
C 2.7569977923 -2.4080699387 2.9033640732
S 0.613384748 -0.7038911908 0.8339809926
C 0.137946381 1.0577172768 0.8960098752
S -1.6099275483 1.240127179 1.2530407812
P -2.3848664779 0.7705037396 -0.6929156857
S -1.0538727438 0.8416537827 -2.1274396224
O -3.5353892189 1.7991063586 -0.9941279242
C -4.8500823486 1.8058168069 -0.3843580448
C -4.7964474436 2.0652917726 1.1057981264
O -3.21405041 -0.5724667193 -0.4932101462
C -2.6745728519 -1.8241710288 -0.0338646312
C -1.9707454657 -2.5750173806 -1.1460969445
H 1.9736258748 -1.3249748692 -4.1514673925
H 1.330635111 0.137426084 -3.3897514132
H 3.062643343 0.0074560193 -3.7222231161
H 3.2140660658 -1.8967890425 -2.0798916917
H 1.4844125625 -1.6730396838 -1.7089250397
H 4.3811575929 -3.1204056277 1.652936392
H 4.5845754156 -1.4516059931 2.2663423755
H 2.3102262613 -1.4539011118 3.1786211068
H 1.9860550672 -3.050184869 2.4848747084
H 3.1694643854 -2.8711857843 3.7939503326
H 0.3600886615 1.5124212389 -0.0723898714
H 0.6912478531 1.5461028638 1.6968890787
H -5.3631331678 2.609752852 -0.9143344768
H -5.3306113495 0.8504350057 -0.6011093277
H -4.2945866011 1.2462415117 1.6181916819
H -4.256414758 2.9857739123 1.3121506551
H -5.8093241179 2.1522422108 1.4866641054
H -1.991063615 -1.6366473422 0.8006166337
H -3.5492622203 -2.3714749487 0.3224698491
H -2.6492057357 -2.7401711866 -1.9786164024
H -1.1179753142 -2.0024263791 -1.5037066366
H -1.6220234902 -3.5298925765 -0.7672025358
*
