  19
  -26.2823676700000       5.548699968206505E-002 !mtd5
 C         -3.6621904119       -0.1126038976       -0.0006475285
 C         -2.2853603845        0.5325471947       -0.0006155023
 O         -1.3218502200       -0.5112327992        0.0010595909
 C          0.0034851242       -0.1919857357        0.0006200289
 C          0.5136369465        1.1014176966        0.0005798127
 C          1.8855034659        1.2989781575       -0.0000023098
 C          2.7565292136        0.2259949222       -0.0005983483
 C          2.2478821232       -1.0642725294       -0.0004336412
 C          0.8849874444       -1.2748259002        0.0001441102
 H         -3.7783386149       -0.7346018589        0.8823517391
 H         -4.4265892057        0.6576569881       -0.0018137259
 H         -3.7775927789       -0.7366531087       -0.8822594621
 H         -2.1558670583        1.1579795670        0.8922675875
 H         -2.1547100732        1.1561709877       -0.8946714258
 H         -0.1423123110        1.9572558622        0.0009690320
 H          2.2698661290        2.3079228487        0.0001825315
 H          3.8226755999        0.3904748216       -0.0011795030
 H          2.9175547229       -1.9106932860       -0.0011779367
 H          0.4696026502       -2.2703650869       -0.0001275049
  19
  -26.2823676000000       5.548288971038602E-002 !gc
 C         -3.6620167759       -0.1137107824        0.0007946884
 C         -2.2857446939        0.5326835376        0.0012841976
 O         -1.3218368269       -0.5105725203       -0.0015499461
 C          0.0035140532       -0.1914429950       -0.0011097941
 C          0.5139890892        1.1018345692       -0.0011321630
 C          1.8859399592        1.2989003127       -0.0000532036
 C          2.7565903193        0.2256046468        0.0010300292
 C          2.2475968075       -1.0645301097        0.0008920977
 C          0.8846389338       -1.2745826532       -0.0002335077
 H         -4.4274374256        0.6556136507        0.0012088389
 H         -3.7767955972       -0.7362836435       -0.8819501099
 H         -3.7771778753       -0.7375769708        0.8825198632
 H         -2.1553715958        1.1555366239        0.8959492768
 H         -2.1568151753        1.1592204749       -0.8909594497
 H         -0.1418468021        1.9577819726       -0.0018433505
 H          2.2707574015        2.3076419160       -0.0004506302
 H          3.8227092577        0.3897312703        0.0016055571
 H          2.9168462389       -1.9112695830        0.0013849487
 H          0.4688008217       -2.2698496773       -0.0004068250
  19
  -26.2823675300000       5.547878004292771E-002 !mtd2
 C         -3.6620582899       -0.1132243541        0.0025238269
 C         -2.2856344743        0.5326516599       -0.0023551656
 O         -1.3218284736       -0.5109138297       -0.0005141372
 C          0.0035063801       -0.1916453596       -0.0005717855
 C          0.5138119337        1.1016795700       -0.0003243005
 C          1.8857526153        1.2989421138        0.0005860320
 C          2.7565801128        0.2257702531        0.0008697700
 C          2.2477190444       -1.0644418032        0.0001981096
 C          0.8847716362       -1.2746730242       -0.0005018739
 H         -3.7794791232       -0.7389031177       -0.8776149435
 H         -3.7749935501       -0.7339153251        0.8868067635
 H         -4.4271655342        0.6563885647        0.0022827982
 H         -2.1542385907        1.1603135609        0.8887692661
 H         -2.1572476386        1.1541713562       -0.8982258485
 H         -0.1420512431        1.9576340178       -0.0008295133
 H          2.2704343473        2.3077600587        0.0008687036
 H          3.8227614063        0.3899786976        0.0014707061
 H          2.9171494102       -1.9110701019        0.0003048134
 H          0.4690670902       -2.2699989384       -0.0007313862
  19
  -26.2823673100000       5.546586592744260E-002 !mtd3
 C         -3.6592487988       -0.1859406229        0.0011857117
 C         -2.2345406406       -0.7172674040       -0.0007711318
 O         -1.3590614875        0.4014094955       -0.0005420947
 C         -0.0121195977        0.1913502457       -0.0004431207
 C          0.7778548713        1.3425966039        0.0001558009
 C          2.1534635207        1.2442168793        0.0007397522
 C          2.7658304788       -0.0001505519        0.0006256146
 C          1.9853863853       -1.1407916114       -0.0001609059
 C          0.6019991540       -1.0560919929       -0.0007529803
 H         -3.8251485176        0.4281813232       -0.8794253532
 H         -4.3588381714       -1.0156261574       -0.0010055141
 H         -3.8248097031        0.4231957451        0.8852194315
 H         -2.0551189283       -1.3280629312       -0.8952218805
 H         -2.0532020846       -1.3302733133        0.8917773292
 H          0.2824721115        2.3007846814        0.0003035018
 H          2.7515887491        2.1426360989        0.0011314785
 H          3.8419349105       -0.0771238122        0.0009081053
 H          2.4510696027       -2.1149114345       -0.0004977145
 H          0.0180498555       -1.9626098700       -0.0014809465
  19
  -26.2823672200000       5.546058374656927E-002 !mtd1
 C         -3.6590306510       -0.1854235491        0.0013444946
 C         -2.2346042098       -0.7173525018        0.0005616490
 O         -1.3590299862        0.4010924392       -0.0018438444
 C         -0.0121235146        0.1911150892       -0.0009704073
 C          0.7777511916        1.3424949493       -0.0005674772
 C          2.1532675878        1.2443212125        0.0006108648
 C          2.7657474909        0.0000047157        0.0011188913
 C          1.9854882364       -1.1407334709        0.0003200267
 C          0.6020983875       -1.0562314632       -0.0006782853
 H         -3.8249056883        0.4247070801        0.8845349144
 H         -3.8241826321        0.4278199374       -0.8799477857
 H         -4.3591254948       -1.0146888717       -0.0004386822
 H         -2.0554638752       -1.3304282856       -0.8924023707
 H         -2.0532454234       -1.3283666892        0.8945230413
 H          0.2820851918        2.3004946775       -0.0010192315
 H          2.7512297171        2.1428253831        0.0013137537
 H          3.8418130667       -0.0768074698        0.0025649744
 H          2.4513493736       -2.1147500451        0.0006362125
 H          0.0183112211       -1.9628409371       -0.0012280767
  19
  -26.2823669000000       5.544180673265221E-002 !md7
 C         -3.6591566229       -0.1860573893       -0.0053603499
 C         -2.2344909353       -0.7172293449       -0.0020541137
 O         -1.3590921209        0.4014367767        0.0065695867
 C         -0.0121468405        0.1913809794        0.0037827949
 C          0.7779177805        1.3426380760        0.0041408068
 C          2.1534417820        1.2442019079        0.0001819195
 C          2.7657921746       -0.0002152294       -0.0039114339
 C          1.9853618596       -1.1407885353       -0.0032969947
 C          0.6019288578       -1.0560241019        0.0004889726
 H         -4.3586782271       -1.0157351908       -0.0151506233
 H         -3.8296726928        0.4190847374        0.8804537082
 H         -3.8203319707        0.4320115045       -0.8839726876
 H         -2.0504278700       -1.3248204616       -0.8977455273
 H         -2.0576302552       -1.3334543221        0.8891631041
 H          0.2825033590        2.3007899964        0.0071865263
 H          2.7516340442        2.1425725058        0.0000223526
 H          3.8418115252       -0.0770040380       -0.0074722008
 H          2.4509394605       -2.1149160781       -0.0059450361
 H          0.0180664197       -1.9625904503        0.0010143544
  19
  -26.2823635100000       5.524327772230919E-002 !mtd7
 C         -2.8310863204       -0.8010103925        0.8477567089
 C         -2.4030221008       -0.3196769871       -0.5348900351
 O         -1.3896436289        0.6738567006       -0.4803661824
 C         -0.0968076707        0.3197164480       -0.2197820900
 C          0.7970612376        1.3857529149       -0.0990976652
 C          2.1342750236        1.1538423569        0.1459728444
 C          2.6063794932       -0.1435216553        0.2751958608
 C          1.7243420640       -1.2005955995        0.1537237469
 C          0.3783132049       -0.9806256121       -0.0912876112
 H         -3.6463090629       -1.5108510421        0.7471775574
 H         -2.0043989893       -1.2796403604        1.3666557900
 H         -3.1661528393        0.0444945368        1.4427906969
 H         -3.2367409907        0.1851495656       -1.0291610781
 H         -2.0819799764       -1.1576523804       -1.1637605765
 H          0.4108891438        2.3874687337       -0.2048210871
 H          2.8117147502        1.9891734569        0.2369287953
 H          3.6518764354       -0.3259363553        0.4686637324
 H          2.0799290654       -2.2154313408        0.2513165033
 H         -0.2810746906       -1.8288824362       -0.1818523688
  19
  -26.2823634800000       5.524152400566316E-002 !mtd12
 C         -2.8326760628       -0.7980449955       -0.8488176812
 C         -2.4026714525       -0.3214299450        0.5348845448
 O         -1.3894832405        0.6724061270        0.4818798633
 C         -0.0966762243        0.3189617673        0.2200053564
 C          0.7967767454        1.3854942023        0.1002726435
 C          2.1340995471        1.1543511050       -0.1448118303
 C          2.6067248330       -0.1427517053       -0.2751484393
 C          1.7250165425       -1.2002540217       -0.1552718398
 C          0.3788284887       -0.9810343547        0.0897021621
 H         -3.1708135175        0.0492176318       -1.4396006948
 H         -2.0059864028       -1.2726979648       -1.3714405879
 H         -3.6460803801       -1.5100839176       -0.7494300317
 H         -2.0804020480       -1.1615713103        1.1602450480
 H         -3.2356766022        0.1814008388        1.0324223646
 H          0.4101344592        2.3869136872        0.2071418057
 H          2.8113171707        1.9899615522       -0.2350143088
 H          3.6523945931       -0.3244811859       -0.4683251206
 H          2.0809705213       -2.2148640969       -0.2538656198
 H         -0.2802634846       -1.8296861250        0.1788884334
  19
  -26.2823634300000       5.523860126816341E-002 !mtd1
 C         -2.8868250590        0.5805922804        0.8434411271
 C         -2.4204855624        0.1265397468       -0.5360437515
 O         -1.3322544597       -0.7839697839       -0.4746974694
 C         -0.0712245505       -0.3276432059       -0.2172046568
 C          0.3002620629        1.0068578616       -0.0974733901
 C          1.6249388893        1.3335034005        0.1448055174
 C          2.5873658920        0.3498017110        0.2724188982
 C          2.2186135675       -0.9814545023        0.1523066713
 C          0.9036574444       -1.3193120308       -0.0901854002
 H         -3.1562811514       -0.2852327758        1.4426230500
 H         -2.1004459365        1.1245401526        1.3607204373
 H         -3.7544800219        1.2245642635        0.7380775412
 H         -2.1653998897        0.9836334259       -1.1693705625
 H         -3.2113324399       -0.4449405723       -1.0282495148
 H         -0.4239009469        1.7999999954       -0.1930257309
 H          1.8998187302        2.3737451692        0.2353368575
 H          3.6153528642        0.6150774283        0.4638377310
 H          2.9595334370       -1.7603980991        0.2485825364
 H          0.5973005139       -2.3489517923       -0.1887180850
  19
  -26.2823634300000       5.523860126816341E-002 !mtd12
 C         -2.8855894619        0.5789623804       -0.8450814760
 C         -2.4207758787        0.1273014734        0.5357321931
 O         -1.3322695526       -0.7830967387        0.4768711693
 C         -0.0713509748       -0.3271873529        0.2182047864
 C          0.3004699886        1.0071758455        0.0979961700
 C          1.6250602458        1.3333921524       -0.1453431127
 C          2.5871149148        0.3493746818       -0.2735286772
 C          2.2180545771       -0.9817559301       -0.1527965355
 C          0.9031703521       -1.3191790410        0.0906735730
 H         -2.0992527886        1.1235475716       -1.3617369424
 H         -3.1526531375       -0.2880086748       -1.4436088318
 H         -3.7543979609        1.2216525339       -0.7420766186
 H         -3.2119768435       -0.4437023219        1.0279122206
 H         -2.1666248528        0.9853863470        1.1680864866
 H         -0.4233686754        1.8005870168        0.1938912837
 H          1.9002092982        2.3735404521       -0.2361541947
 H          3.6150205334        0.6143588262       -0.4657672977
 H          2.9586083242       -1.7609138412       -0.2497687807
 H          0.5966155173       -2.3487234144        0.1896670973
  19
  -26.2823634300000       5.523860126816341E-002 !md8
 C         -2.8298225536       -0.7990133682        0.8498787225
 C         -2.4030940765       -0.3207657055       -0.5343442856
 O         -1.3896045297        0.6729139404       -0.4829179705
 C         -0.0969034211        0.3192384582       -0.2211362027
 C          0.7966317005        1.3855657922       -0.1003048362
 C          2.1337022457        1.1541689489        0.1461036098
 C          2.6059598365       -0.1430256665        0.2765951419
 C          1.7242795001       -1.2004142712        0.1547924059
 C          0.3784319651       -0.9809600585       -0.0915716691
 H         -2.0017436117       -1.2741662731        1.3698869367
 H         -3.1665781268        0.0475215839        1.4424705540
 H         -3.6434181321       -1.5110843447        0.7517689470
 H         -3.2372038686        0.1828081797       -1.0292480654
 H         -2.0825044295       -1.1602583228       -1.1614255567
 H          0.4101180744        2.3871035971       -0.2064296440
 H          2.8107235966        1.9898047878        0.2376811414
 H          3.6513559681       -0.3252177765        0.4709408230
 H          2.0802227384       -2.2150726164        0.2525949340
 H         -0.2806256314       -1.8294570568       -0.1826472577
  19
  -26.2823634100000       5.523743221637931E-002 !mtd3
 C         -2.8850551616        0.5795881218       -0.8450572987
 C         -2.4207882549        0.1270305024        0.5356528544
 O         -1.3323106529       -0.7833930589        0.4767589850
 C         -0.0713984869       -0.3273720765        0.2182853512
 C          0.3002881113        1.0070395254        0.0981177525
 C          1.6247838367        1.3334136874       -0.1454198197
 C          2.5869698939        0.3495165602       -0.2735949710
 C          2.2180740041       -0.9816504368       -0.1527962071
 C          0.9032196662       -1.3192167545        0.0906867322
 H         -3.7537145826        1.2224235464       -0.7419108267
 H         -2.0984998015        1.1242711381       -1.3612328914
 H         -3.1521696338       -0.2869361121       -1.4441958784
 H         -3.2121931031       -0.4442127774        1.0271945087
 H         -2.1668100788        0.9846936225        1.1686295653
 H         -0.4234642345        1.8004401029        0.1942694735
 H          1.8998670811        2.3735826647       -0.2357933263
 H          3.6149497012        0.6146312026       -0.4654090675
 H          2.9587507206       -1.7608099402       -0.2493414058
 H          0.5968326202       -2.3488121781        0.1898068661
  19
  -26.2823633800000       5.523567868530085E-002 !mtd4
 C         -2.8860238542        0.5807187616        0.8437370323
 C         -2.4206015186        0.1264858199       -0.5359663373
 O         -1.3323219152       -0.7839769352       -0.4749290187
 C         -0.0713559228       -0.3276899392       -0.2172953893
 C          0.3001840931        1.0068252505       -0.0977743217
 C          1.6247561401        1.3335222724        0.1447879344
 C          2.5871651621        0.3498157941        0.2728245134
 C          2.2185033226       -0.9814307338        0.1523815294
 C          0.9035810410       -1.3193400903       -0.0903411003
 H         -2.0992961358        1.1244865101        1.3604923894
 H         -3.7535906783        1.2247826712        0.7390096263
 H         -3.1550840517       -0.2849995075        1.4430597405
 H         -2.1659125913        0.9833457806       -1.1697096644
 H         -3.2117163260       -0.4451885216       -1.0275198345
 H         -0.4237805283        1.7999697513       -0.1939372668
 H          1.8996533196        2.3737487607        0.2349723362
 H          3.6151129687        0.6151341977        0.4643731473
 H          2.9595186204       -1.7603435104        0.2485971787
 H          0.5974541659       -2.3490460874       -0.1892899112
  19
  -26.2823633700000       5.523509418724255E-002 !mtd3
 C         -2.8300472355       -0.7955530601        0.8517963191
 C         -2.4031562721       -0.3224315219       -0.5341008346
 O         -1.3894920608        0.6711449936       -0.4855294467
 C         -0.0968385400        0.3183454072       -0.2220230316
 C          0.7959522178        1.3852158675       -0.1010164177
 C          2.1330377196        1.1546501351        0.1463235130
 C          2.6060391631       -0.1421748083        0.2773511033
 C          1.7249937579       -1.2001426349        0.1556053382
 C          0.3791279942       -0.9815155395       -0.0913903098
 H         -3.1650602733        0.0534989663        1.4417993471
 H         -3.6449687964       -1.5063359291        0.7563812121
 H         -2.0025567634       -1.2703676289        1.3729089472
 H         -3.2370267573        0.1797244172       -1.0308877041
 H         -2.0828308507       -1.1641984655       -1.1582846752
 H          0.4091251282        2.3865359106       -0.2080813073
 H          2.8094880286        1.9906709650        0.2382576032
 H          3.6514070195       -0.3235920094        0.4725916353
 H          2.0814188895       -2.2145693489        0.2543526207
 H         -0.2795240310       -1.8303684483       -0.1821732383
  19
  -26.2823633500000       5.523392520988883E-002 !md7
 C         -2.8302354337       -0.7946156583       -0.8523619320
 C         -2.4030498293       -0.3230438668        0.5339518577
 O         -1.3894689525        0.6705978912        0.4862882871
 C         -0.0968736311        0.3181346104        0.2221232084
 C          0.7959725375        1.3850999259        0.1023634543
 C          2.1330656796        1.1547723525       -0.1450355067
 C          2.6060539767       -0.1418673354       -0.2775078852
 C          1.7250385374       -1.1999488071       -0.1569447530
 C          0.3791227603       -0.9815683500        0.0900991445
 H         -2.0034582571       -1.2708842616       -1.3733495651
 H         -3.6465616428       -1.5039236113       -0.7577341413
 H         -3.1633516706        0.0554004069       -1.4421001410
 H         -2.0825840418       -1.1654400702        1.1571661746
 H         -3.2369039739        0.1784299791        1.0314024554
 H          0.4091212521        2.3863046215        0.2103588103
 H          2.8095984742        1.9908161885       -0.2359212883
 H          3.6514483947       -0.3230453110       -0.4725891780
 H          2.0815285906       -2.2142350605       -0.2568309360
 H         -0.2795630402       -1.8305207551        0.1798245786
  19
  -26.2823633400000       5.523334073038560E-002 !mtd6
 C         -2.8855584547        0.5780779899        0.8456449438
 C         -2.4208681051        0.1276833054       -0.5355942096
 O         -1.3322728358       -0.7826848347       -0.4775997763
 C         -0.0713592052       -0.3269785388       -0.2183710494
 C          0.3007207574        1.0073362128       -0.0984428192
 C          1.6253516920        1.3333722241        0.1449413616
 C          2.5871773755        0.3492170039        0.2735891788
 C          2.2178147827       -0.9818638062        0.1533215516
 C          0.9028884355       -1.3191229537       -0.0901944105
 H         -3.7554876546        1.2194159440        0.7431843073
 H         -3.1510408692       -0.2896040433        1.4439551887
 H         -2.0998705249        1.1237463569        1.3621474166
 H         -2.1668153497        0.9863358750       -1.1671908883
 H         -3.2120219267       -0.4429386389       -1.0282666195
 H         -0.4229090707        1.8008842337       -0.1946216460
 H          1.9006790683        2.3735100307        0.2353357526
 H          3.6151487082        0.6140129818        0.4657004083
 H          2.9581758283       -1.7611900666        0.2507164706
 H          0.5962122653       -2.3486636359       -0.1887940481
  19
  -26.2823633200000       5.523217179014147E-002 !mtd13
 C         -2.8322760047       -0.7987272296       -0.8484904125
 C         -2.4022900923       -0.3216375074        0.5349978050
 O         -1.3896780345        0.6728182885        0.4815312661
 C         -0.0967510955        0.3194999211        0.2198220131
 C          0.7969107557        1.3857588404        0.1000176548
 C          2.1342299940        1.1541334360       -0.1448508889
 C          2.6066282238       -0.1430617048       -0.2748198170
 C          1.7246099973       -1.2003174719       -0.1550688992
 C          0.3784481787       -0.9806502239        0.0895153391
 H         -3.6441407264       -1.5125695433       -0.7488688044
 H         -3.1726001998        0.0479585828       -1.4389509230
 H         -2.0048036819       -1.2714285555       -1.3716581137
 H         -2.0792579708       -1.1613204880        1.1605423953
 H         -3.2355413005        0.1806789282        1.0325731143
 H          0.4107840133        2.3874244620        0.2063107711
 H          2.8116327538        1.9896088475       -0.2348198949
 H          3.6523845208       -0.3251307738       -0.4672376561
 H          2.0801654931       -2.2150887028       -0.2534073150
 H         -0.2809796305       -1.8290628311        0.1784024055
  19
  -26.2823631800000       5.522398990026658E-002 !gc
 C         -2.8884291241        0.5779323877       -0.8440526311
 C         -2.4206103703        0.1275867833        0.5361336145
 O         -1.3320731479       -0.7826151809        0.4760333860
 C         -0.0710373964       -0.3268130612        0.2172856174
 C          0.3010183237        1.0074421045        0.0968800557
 C          1.6259225348        1.3333594272       -0.1452481291
 C          2.5878874220        0.3491499172       -0.2723440907
 C          2.2183872443       -0.9819208993       -0.1522757845
 C          0.9032601149       -1.3190458873        0.0901313238
 H         -3.1540732575       -0.2898724690       -1.4421767579
 H         -3.7588963740        1.2182453141       -0.7397147007
 H         -2.1043533567        1.1247034011       -1.3617931709
 H         -3.2106803188       -0.4431454876        1.0304109749
 H         -2.1655226484        0.9862922334        1.1672117425
 H         -0.4229030764        1.8009985250        0.1914255792
 H          1.9013276176        2.3734432543       -0.2361562193
 H          3.6160045110        0.6138725229       -0.4635247249
 H          2.9588618719       -1.7612573063       -0.2485330987
 H          0.5963772573       -2.3485111987        0.1888114059
  19
  -26.2794611900000       2.561329886386808E-003 !md8
 C         -2.7705172121       -0.9317028996        0.7871624997
 C         -2.4076754478       -0.2542512438       -0.5423819870
 O         -1.3974013090        0.7354877018       -0.4091165065
 C         -0.1042706450        0.3548782509       -0.1893388701
 C          0.8144830800        1.3995044959       -0.0722028434
 C          2.1509014617        1.1332596048        0.1413928918
 C          2.5955482798       -0.1763162832        0.2417346578
 C          1.6872050332       -1.2117436619        0.1261111186
 C          0.3418222106       -0.9576158187       -0.0866634589
 H         -2.1453041200       -0.5300649668        1.5813157355
 H         -3.8072018871       -0.7412267644        1.0454214913
 H         -2.6188939468       -2.0061519532        0.7418469199
 H         -3.2572815562        0.3082771322       -0.9343251611
 H         -2.1048492973       -0.9885940812       -1.2973484587
 H          0.4492662768        2.4112105619       -0.1550384695
 H          2.8492769657        1.9514844075        0.2297987532
 H          3.6405863678       -0.3846932523        0.4096915839
 H          2.0215445789       -2.2353934509        0.2041787849
 H         -0.3429099136       -1.7856685520       -0.1672550615
  19
  -26.2791021100000       1.751635646912526E-003 !gc
 C         -3.6705812364       -0.1168944787        0.0078526769
 C         -2.2864983209        0.5350165497       -0.0020218964
 O         -1.3208564189       -0.5088252381       -0.0060446979
 C          0.0045134059       -0.1902561423       -0.0035335807
 C          0.5159676437        1.1027072762       -0.0029942085
 C          1.8880575207        1.2989219172        0.0010783084
 C          2.7581407693        0.2252071523        0.0041352285
 C          2.2483116702       -1.0645976230        0.0024648249
 C          0.8852743805       -1.2738028967       -0.0012919096
 H         -4.2430507462        0.1657640337       -0.8692652167
 H         -3.5420708596       -1.1960073556        0.0037037743
 H         -4.2279325491        0.1606841875        0.8962739032
 H         -2.1388487471        1.1611664674        0.8864858550
 H         -2.1496718871        1.1579224145       -0.8946236220
 H         -0.1388118042        1.9594445137       -0.0056656126
 H          2.2733628950        2.3075033954        0.0019380492
 H          3.8244219751        0.3887493202        0.0075709642
 H          2.9170445777       -1.9117471469        0.0043082512
 H          0.4694158107       -2.2690844144       -0.0025731214
  19
  -26.2754788300000       3.787037259009590E-005 !mtd3
 C         -2.9184801066       -1.1192912950       -0.4191145175
 C         -2.3890155345        0.3069402119       -0.3053132677
 O         -1.3836623421        0.4916451633        0.6903128993
 C         -0.0714006400        0.2516380636        0.3220634076
 C          0.8033432178        1.3336245499        0.3082037320
 C          2.1374142768        1.1454986569       -0.0026456010
 C          2.6086186856       -0.1200975270       -0.3092713538
 C          1.7413944819       -1.1985568340       -0.2875274616
 C          0.4061521372       -1.0207922602        0.0310292180
 H         -3.8384770959       -1.1078846540       -0.9962046133
 H         -2.2070924023       -1.7691632108       -0.9203521264
 H         -3.1278064254       -1.5140777617        0.5718038064
 H         -3.1961277697        0.9702143702        0.0177508718
 H         -2.0128384490        0.6547125481       -1.2750661530
 H          0.4197135001        2.3129563039        0.5504241814
 H          2.8080066283        1.9911781393       -0.0102418361
 H          3.6482792828       -0.2661098041       -0.5580695626
 H          2.1047638990       -2.1896063395       -0.5134801623
 H         -0.2577616122       -1.8691617661        0.0712332540
