! pbe def2-sv(p) def2/J RI DEFGRID1 loosescf d4 GCP(DFT/SV(P)) printgap
%output
    printlevel normal
end
* xyz 0 1
C 1.2454200919 -0.3283136827 -3.1630692361
C 2.2775738241 0.4188810832 -2.3413380354
O 2.8184987121 -0.4260147901 -1.3114739929
P 2.4304194161 -0.3608464908 0.2209598304
S 2.5371093094 1.3900603776 1.1064321856
O 3.5248543605 -1.4148137639 0.6693697976
C 4.0335580683 -1.4834997694 2.0116868956
C 2.9762454757 -1.9273446323 3.0032926262
S 0.5822604916 -1.3934698138 0.3771912622
C -0.2592954174 -0.3681360417 1.6398169511
S -2.0382366707 -0.3094233825 1.381163059
P -2.0350331759 0.6584615003 -0.5168802421
S -0.6083431085 1.9655207375 -0.8226748601
O -3.5399674459 1.1520931489 -0.6545687074
C -4.2766171246 1.8818963497 0.3444581131
C -3.5673998782 3.1431119873 0.7907065712
O -1.9765157427 -0.4476994913 -1.6380336969
C -2.9100178008 -1.5543529729 -1.7405459988
C -2.2589256298 -2.8443568532 -1.2832784609
H 1.6608413087 -1.2703129044 -3.5096838571
H 0.3547360666 -0.5267785237 -2.5706471734
H 0.9643716687 0.2821403761 -4.0153501225
H 1.8498045625 1.3218896623 -1.8928414379
H 3.1390973894 0.6970023182 -2.9521489091
H 4.8495106178 -2.2041337016 1.9419891574
H 4.4279312589 -0.4998628585 2.2856418758
H 3.4409838737 -2.1089352162 3.9671435007
H 2.2293199261 -1.1423042797 3.1159455841
H 2.4928662705 -2.8377717377 2.6575543923
H 0.1609125537 0.6408095238 1.5936630357
H -0.1195558805 -0.8135995589 2.6218911813
H -5.2214584675 2.1107728768 -0.1516622393
H -4.4520247804 1.2159110317 1.1937615378
H -3.3386051078 3.7739420863 -0.0652816613
H -4.2014716095 3.6897810442 1.4811731636
H -2.6322372159 2.8936239325 1.2906709762
H -3.8007173744 -1.3266151843 -1.1520192568
H -3.1701978662 -1.5942745932 -2.7993776426
H -1.3430807559 -3.0212034131 -1.8403536644
H -2.0132127033 -2.7997427435 -0.2250246543
H -2.9472590156 -3.665670438 -1.4546736556
*
