  9
         -9.44823046
 C         -0.4674658371       -0.7269697794       -0.0000037323
 C         -0.3958568927        0.7683113921        0.0000108096
 C          0.8633251309       -0.0413477939       -0.0000109795
 H         -0.7868756785       -1.2233703040       -0.9032537791
 H         -0.7867026595       -1.2235520318        0.9032722814
 H         -0.6661835390        1.2931362629       -0.9032702389
 H         -0.6661927651        1.2930662441        0.9033243201
 H          1.4529166900       -0.0696262731       -0.9032922808
 H          1.4530093394       -0.0695802420        0.9032661968
