! pbe def2-sv(p) def2/J RI DEFGRID1 loosescf d4 GCP(DFT/SV(P)) printgap
%output
    printlevel normal
end
* xyz 0 1
C 4.525065615 1.8158555728 -0.7372412248
C 4.5789018769 0.3086850508 -0.8823835684
O 3.2739949346 -0.263024014 -1.0838857349
P 2.1729158773 -0.2919078852 0.059949006
S 2.8582339739 -0.6403854513 1.865984458
O 1.1325089526 -1.3353372579 -0.5128173162
C 1.1541899406 -2.7360473198 -0.1769564731
C 2.3919331208 -3.4253868364 -0.7095143362
S 1.0735870337 1.4877430597 -0.2226866382
C 0.244159228 1.4636444899 1.3904661086
S -0.8804621156 0.0576580281 1.6105159999
P -2.1661413237 0.3486279153 -0.0669484956
S -1.6932761346 -0.536429403 -1.7570865516
O -2.2508978185 1.9288063996 -0.0352298971
C -3.3765546925 2.6894654463 -0.5317088486
C -3.5781972526 2.5135856965 -2.0217661793
O -3.6032545363 -0.0755036043 0.4703823508
C -4.0731506405 -1.42838504 0.3664223358
C -3.3307038006 -2.3458561325 1.3158809252
H 4.015233816 2.0830222998 0.1875735592
H 5.535660063 2.2105123697 -0.7098389402
H 3.9863399218 2.2562753888 -1.5726608815
H 5.0209941426 -0.1473924372 0.0094273465
H 5.1361660221 0.0077230445 -1.7704468778
H 1.091770684 -2.8291101316 0.9126016735
H 0.2431680039 -3.1228696626 -0.6377228807
H 2.4838318679 -3.2534189927 -1.7789131907
H 3.2771147781 -3.0320634092 -0.2103372317
H 2.3209066346 -4.4912499864 -0.5170315251
H -0.3060602476 2.396182814 1.476221993
H 0.9896286979 1.364839837 2.180580719
H -4.2663528547 2.386610012 0.0238999755
H -3.1125628683 3.7189678156 -0.2839492926
H -3.8440800834 1.481832822 -2.2472247252
H -4.376811327 3.1679940689 -2.3568032572
H -2.6634079828 2.7564957422 -2.5574939518
H -5.1340104726 -1.3629706728 0.6104912464
H -3.9453865062 -1.7602968427 -0.6696883675
H -3.4118127562 -1.9826170896 2.3369615509
H -3.7419637989 -3.3479213648 1.2520608844
H -2.2749234566 -2.3766850845 1.0433030573
*
