! pbe def2-sv(p) def2/J RI DEFGRID1 loosescf d4 GCP(DFT/SV(P)) printgap
%output
    printlevel normal
end
* xyz 0 1
C 4.3023421617 -2.8886407099 -1.4267222652
C 3.116356573 -2.3015135643 -0.6913495857
O 3.3718818007 -0.8840220218 -0.5057285571
P 2.24834009 0.1517407778 -0.1298878376
S 2.9200896028 1.9727514207 0.0636102077
O 1.5987472786 -0.4927471526 1.1767049153
C 1.0940822556 0.2528770248 2.2989019685
C 1.8787899509 -0.1218517067 3.5403508622
S 0.8099668022 -0.1661913297 -1.6873147954
C 0.0500326931 1.4707008606 -1.6284399502
S -0.8455898414 1.7871399172 -0.087300215
P -2.2404014994 0.1985226846 -0.2871499134
S -2.8867202416 -0.1671608234 -2.0925304066
O -3.4309174899 0.5725706949 0.6859118246
C -3.3306815614 0.6550815075 2.1291241715
C -2.9765173692 2.0567525261 2.5824739631
O -1.4409199175 -0.9824132348 0.4414188218
C -1.4807388401 -2.3445384087 -0.0213867696
C -2.7755064683 -3.0190465251 0.3832094931
H 4.4080368081 -2.4188835813 -2.4004757215
H 5.212359311 -2.7213028854 -0.8578029829
H 4.1486993971 -3.95494636 -1.5570937237
H 2.9903486217 -2.7502964755 0.2956766295
H 2.1929428402 -2.4157281886 -1.2662295224
H 1.1835249191 1.3237139386 2.0895477701
H 0.0389828859 -0.0127096143 2.3938393394
H 1.817418696 -1.1917870974 3.7171537364
H 2.9224848641 0.1573699658 3.4162665611
H 1.4679789342 0.4090176379 4.3929303531
H -0.6428023625 1.518369742 -2.4679883203
H 0.8209942705 2.2378348429 -1.6989855532
H -4.3253863496 0.3686304118 2.4748474683
H -2.5941451952 -0.0736084797 2.4749320612
H -1.9809012526 2.3339447588 2.2412697715
H -3.6909024448 2.7696406682 2.1802130942
H -3.0038615443 2.0958015715 3.6669622609
H -1.3638551577 -2.3488979848 -1.1096144274
H -0.6115390754 -2.811342066 0.4449580965
H -2.7673762441 -4.0485493518 0.03982025
H -2.8953656718 -3.0002188373 1.4632336835
H -3.6161718774 -2.4998032948 -0.0763693449
*
