! pbe def2-sv(p) def2/J RI DEFGRID1 loosescf d4 GCP(DFT/SV(P)) printgap
%output
    printlevel normal
end
* xyz 0 1
C 5.134717825 -2.123504406 -0.4422862798
C 3.8452473896 -2.771033504 -0.921173424
O 3.0325167376 -1.8241329484 -1.6433029663
C 2.2154974121 -1.0502270219 -0.9674526696
O 2.0583549175 -1.0891492267 0.2368351569
C 1.4800519683 -0.0779604547 -1.8652696278
C 0.2800289165 0.4870610359 -1.1205880336
H -0.1592441002 1.3330274316 -1.6574272857
C 0.6566144924 0.958994782 0.272820802
O -0.0183404636 0.6988939507 1.2505709036
O 1.6938187755 1.7529494661 0.2537148882
C 2.1654433778 2.3032265174 1.5022038582
C 3.3009017611 1.456841195 2.0531079536
S -1.0154009105 -0.7856985095 -0.9318705957
P -2.3717672958 0.2917977634 0.2922125444
S -2.3996087509 2.2407851582 0.1094161984
O -3.750744035 -0.3681180506 -0.2236319953
C -4.2621767018 -0.10452062 -1.5322060376
O -2.4277032768 -0.2494844861 1.7770738051
C -2.1942852144 -1.6294929824 2.1081294621
H 4.9153315149 -1.3410499835 0.2808128156
H 5.7584356268 -2.8739996244 0.0318644258
H 5.6704386587 -1.6908255661 -1.2825036494
H 3.2664442343 -3.1566491906 -0.0772270677
H 4.04179333 -3.5643453807 -1.6420663039
H 1.1746050221 -0.5819151192 -2.7813523947
H 2.1650775256 0.7335992821 -2.1197821454
H 2.4986148503 3.3106663129 1.2505004562
H 1.3261897241 2.3446068809 2.2019002261
H 4.1421653817 1.4651265858 1.3656210085
H 3.615186904 1.8556225333 3.0117151069
H 2.9628728346 0.4308549496 2.1851088438
H -5.2836433946 -0.4758827971 -1.5281432796
H -3.6630631135 -0.6284047189 -2.2770277182
H -4.2474765732 0.9691226495 -1.7284013801
H -2.8035070303 -2.2783202116 1.4801592291
H -2.4783619264 -1.7216622015 3.1531490449
H -1.1354800405 -1.857219694 1.978926691
*
