! pbe def2-sv(p) def2/J RI DEFGRID1 loosescf d4 GCP(DFT/SV(P)) printgap
%output
    printlevel normal
end
* xyz 0 1
C 5.7269748551 0.3477587073 -1.2704323507
C 4.2531227181 0.0760162464 -1.4943587666
O 3.6670533286 -0.2577423877 -0.2204997981
P 2.0949984765 -0.2496192163 0.0038000044
S 1.1968315462 1.4027604678 -0.5848337979
O 1.9744906372 -0.5938829603 1.5405721903
C 1.9717815815 0.4231429912 2.5634187927
C 3.3515515564 1.0118507016 2.7681004891
S 1.4946519064 -2.0701293654 -0.8594287163
C -0.2691217154 -1.7278563375 -1.0972234802
S -1.1163634864 -1.2664761211 0.4435244331
P -2.2254509371 0.4326058561 -0.2510634098
S -2.0744477084 0.8886228872 -2.144523332
O -1.8248219629 1.6132782669 0.7101084815
C -1.7702018873 1.5333366214 2.1541445335
C -3.1140522493 1.8305340773 2.7867403387
O -3.7154825527 0.1197988425 0.2238904079
C -4.6583968762 -0.5936942365 -0.5932521767
C -4.2421410632 -2.0293632861 -0.8409571195
H 6.1972153543 0.5659450581 -2.2235853943
H 5.8562711861 1.1963392363 -0.6047231908
H 6.198232385 -0.5239991874 -0.8262666639
H 4.1017211682 -0.7681924567 -2.1726561042
H 3.736482522 0.9542791852 -1.8967174848
H 1.2588247516 1.2023201735 2.2738784537
H 1.6147730697 -0.0998459358 3.4515406164
H 4.0714250709 0.2203261142 2.9568036084
H 3.6553296337 1.5582455776 1.8765219903
H 3.3306532498 1.6937092898 3.612526514
H -0.6941756068 -2.6570216078 -1.4695313221
H -0.4005014226 -0.9158206903 -1.8188259653
H -1.4101006989 0.5395912932 2.4380651062
H -1.0299603029 2.2888990569 2.426781494
H -2.9926734161 1.8680442468 3.8648860165
H -3.4862000357 2.7883434783 2.4334159903
H -3.8336193076 1.057802286 2.5323978209
H -5.5887647998 -0.5357795793 -0.0266033131
H -4.7655035932 -0.0573377871 -1.5410073141
H -3.3619471179 -2.0516653149 -1.4821321409
H -4.012291195 -2.526245164 0.0982205467
H -5.0506751283 -2.5545171323 -1.3391742904
*
