! pbe def2-sv(p) def2/J RI DEFGRID1 loosescf d4 GCP(DFT/SV(P)) printgap
%output
    printlevel normal
end
* xyz 0 1
C 3.9780328305 1.7499917425 -1.7528588081
C 2.6546885418 1.0154247379 -1.7452976028
O 1.9484706271 1.2515939803 -0.5019076753
P 1.9501103331 0.2300836616 0.6931513166
S 0.9923370946 0.9043856077 2.2565236879
O 3.5083072065 -0.0034503198 0.9187114653
C 4.0357638097 -0.6826194522 2.0741658135
C 4.2593994593 -2.1575255655 1.8022849668
S 1.2549756746 -1.6376881848 -0.083468984
C -0.2535696645 -1.8558064167 0.9077923687
S -1.7757379747 -2.0022275735 -0.0625714386
P -1.9768865222 -0.0641629295 -0.8591196348
S -0.7478628451 0.589258711 -2.2318929488
O -1.9710247947 0.7952294729 0.4919598984
C -1.6755782718 2.1996394675 0.4890019721
C -2.8153893907 3.0047737517 -0.0974992446
O -3.4401833112 -0.0823281241 -1.4662134088
C -4.5848724288 -0.8016381255 -0.9501330723
C -5.0101499771 -0.316037195 0.4194228466
H 4.6314575542 1.3589369094 -0.9775580018
H 4.4479821769 1.6167057965 -2.722113025
H 3.8143658798 2.8093745968 -1.5756474738
H 2.7915810382 -0.0614401077 -1.8763334823
H 1.9775203027 1.3853762449 -2.5183634767
H 4.9795848513 -0.1736168446 2.2789119864
H 3.3526827184 -0.5282057973 2.9158331743
H 4.74664053 -2.6034919912 2.6634032103
H 3.3153803195 -2.6662436208 1.6252094605
H 4.8921991681 -2.2832533901 0.9280970613
H -0.3367799302 -1.0214830575 1.6099607959
H -0.171975753 -2.8050728397 1.4319902091
H -1.4967906448 2.4382955457 1.5390095595
H -0.7525299713 2.3629012712 -0.0797162197
H -2.980791411 2.7030836837 -1.1319362559
H -3.72541197 2.8402341647 0.4729487434
H -2.5600798095 4.0593946039 -0.0719515979
H -5.3546515306 -0.6144264141 -1.7007458151
H -4.3406576046 -1.8664270743 -0.930003359
H -5.2457959904 0.7445634739 0.3883854498
H -5.8917456026 -0.8675783122 0.7308626074
H -4.2153161913 -0.4811873843 1.1437705561
*
