! pbe def2-sv(p) def2/J RI DEFGRID1 loosescf d4 GCP(DFT/SV(P)) printgap
%output
    printlevel normal
end
* xyz 0 1
C 3.1849323956 -3.466018519 0.3641784911
C 2.9084605456 -2.0607018142 0.8732907063
O 2.7484681094 -1.1359438937 -0.2209300361
C 1.5859355655 -1.0581758427 -0.8202737641
O 0.6038829446 -1.7128014738 -0.5135119073
C 1.5781021607 -0.0405210814 -1.9382722051
C 0.4103568206 0.9294431752 -1.7614159826
H 0.3564801775 1.6024765312 -2.6226799863
C 0.5020935513 1.7811223554 -0.5057055327
O -0.4813341531 2.1690600809 0.0904226691
O 1.7407053969 2.031591898 -0.1686928555
C 1.9795244912 2.8235316472 1.0144345542
C 1.8343562645 4.3070968553 0.7207115172
S -1.21883349 0.1011953195 -1.7561100241
P -1.493606896 -0.3968150289 0.2804767026
S -0.3451771901 -0.2269664932 1.8618265669
O -2.8426939538 0.4902779692 0.4084628655
C -3.5101284385 0.641382478 1.6606712486
O -2.0438805869 -1.8984209626 0.2769370245
C -2.8611140112 -2.414187392 -0.7842048155
H 4.0504504455 -3.4622210071 -0.2926563456
H 3.3771452945 -4.1187871695 1.2090901727
H 2.3227923894 -3.8428884623 -0.1815130508
H 3.7542400367 -1.6652052033 1.4350229294
H 2.0037496142 -2.033985922 1.4883229163
H 1.4466691757 -0.5711330732 -2.8826523432
H 2.5227064507 0.5017327547 -1.9361181321
H 1.2788664527 2.5012033862 1.790643012
H 2.9998977353 2.5676660265 1.2985081609
H 0.8083092317 4.5356524636 0.4413787759
H 2.0888255336 4.8709630788 1.611853148
H 2.4984995344 4.595325767 -0.0893435074
H -4.3710639194 1.2725848856 1.4564486953
H -2.8455223631 1.1217416866 2.3806565578
H -3.822817745 -0.3300478764 2.0482167041
H -3.3828413302 -3.2684287329 -0.3593097067
H -2.221703862 -2.7259628144 -1.6091022787
H -3.5698073148 -1.6585436105 -1.1266398691
*
