! pbe def2-sv(p) def2/J RI DEFGRID1 loosescf d4 GCP(DFT/SV(P)) printgap
%output
    printlevel normal
end
* xyz 0 1
C 2.7095197829 0.9561296805 -2.623891007
C 3.4220237707 -0.2619954755 -2.0734461914
O 3.3940981936 -0.3269198228 -0.6375684646
P 2.0924427581 -0.2313113784 0.2703186176
S 1.4984545563 1.6001790855 0.6675530188
O 2.5209053733 -1.0458866001 1.5597019379
C 3.0390041842 -0.399643039 2.7389348413
C 4.4562694361 0.082737865 2.5148634571
S 0.8243117393 -1.6811348178 -0.6250911345
C -0.2475244867 -2.0524925686 0.791114503
S -1.0944756744 -0.6073158441 1.4932758967
P -2.0979298602 0.0957269295 -0.2339675789
S -1.1750233737 0.9792702035 -1.7275654178
O -3.2620758927 0.9775465828 0.3943151927
C -3.1291048884 2.38961667 0.6186761149
C -2.1657937065 2.6911210154 1.7486794539
O -2.8366130675 -1.253572333 -0.6085553891
C -3.39020073 -1.4853574617 -1.9208472746
C -4.6181848423 -0.6347898811 -2.1667663056
H 3.1114306343 1.8649767749 -2.1818276779
H 2.835365092 0.9939987045 -3.7010811579
H 1.6430827162 0.9087717466 -2.3998652828
H 4.4878725236 -0.2396336909 -2.308096971
H 2.9741210027 -1.1802521931 -2.4649919943
H 2.3805807797 0.4361732458 2.9975634689
H 2.9859942003 -1.1692302211 3.5098108229
H 4.8429309931 0.5135408328 3.4329065136
H 5.0900909758 -0.7430510018 2.2032777367
H 4.4617377755 0.8421815959 1.7335261268
H 0.3495656776 -2.4726367533 1.597360871
H -0.983160229 -2.7677535049 0.4301460216
H -2.7904328472 2.8609015663 -0.3102689515
H -4.143082239 2.7155142478 0.8544695933
H -2.1778199645 3.7550719066 1.9618576758
H -2.4459936346 2.1384561871 2.6420484487
H -1.1516198901 2.4065772121 1.4647126442
H -2.6162987512 -1.2730603993 -2.6655815069
H -3.6271980576 -2.5499799906 -1.9210351103
H -5.0602234197 -0.9070088093 -3.1199883204
H -5.3444786786 -0.7841780125 -1.3722997294
H -4.3381646509 0.4174718433 -2.1938483003
*
