! pbe def2-sv(p) def2/J RI DEFGRID1 loosescf d4 GCP(DFT/SV(P)) printgap
%output
    printlevel normal
end
* xyz 0 1
C 4.2407263867 -2.4055449684 0.8047283393
C 2.7573971609 -2.295238927 0.5134627779
O 2.5688568183 -1.2480882829 -0.4578577087
C 1.4185764008 -1.1738027513 -1.0850877622
O 0.4831703743 -1.929447226 -0.9038484366
C 1.3814674164 -0.0293884119 -2.0761214074
C 0.2932020331 0.97530362 -1.6956817626
H 0.2164117839 1.7396525652 -2.4755774304
C 0.5453650177 1.6807829702 -0.3754827367
O -0.3608908685 1.9870449301 0.3749248187
O 1.8118286876 1.9105186102 -0.1664096005
C 2.1948313738 2.5687172672 1.0600351379
C 2.0376995116 4.0754138735 0.9440646706
S -1.3759327232 0.237171022 -1.6289964148
P -1.6639120218 -0.2749079703 0.4213204366
S -0.2799887337 -0.6264554619 1.7643523799
O -2.7145687879 0.7579714681 1.0026677179
C -3.9120873494 1.1492813293 0.3096462148
O -2.6580059604 -1.5239701039 0.2283033704
C -2.2455196526 -2.841153575 -0.1331322932
H 4.7833543233 -2.6470432962 -0.1044560505
H 4.6120911254 -1.465002399 1.1991429055
H 4.4013773709 -3.188421707 1.5381405449
H 2.1814822519 -2.0331749259 1.4072200588
H 2.3492713692 -3.2233246636 0.1007926566
H 1.1447094212 -0.4379273471 -3.0592707391
H 2.3511102911 0.4663819595 -2.0874235593
H 1.5817954656 2.1678297501 1.8727506569
H 3.237482686 2.2828381689 1.1959631713
H 0.9893882964 4.3346770276 0.8139302931
H 2.4027200217 4.5407115303 1.8535354387
H 2.6067193853 4.4473763817 0.0966272346
H -3.6574591227 1.6036224742 -0.6480209574
H -4.3890830919 1.8745244575 0.9637309113
H -4.552863679 0.2824906111 0.1557029972
H -3.1123425839 -3.4739821527 0.040257615
H -1.406189001 -3.1556800584 0.4875013668
H -1.9449969293 -2.8657204807 -1.1796284897
*
