  15
        -17.73786551
 C          0.7548931884       -1.2567800200       -0.4719742474
 C          0.0036292179        0.0001548461       -0.0180137823
 C         -1.4149241546        0.0051933003       -0.5907176636
 C          0.7610309818        1.2562215245       -0.4643636373
 O         -0.1473328484       -0.0039237844        1.4007225685
 H          0.2428501130       -2.1446720828       -0.1089048954
 H          0.7985791903       -1.2949895545       -1.5562001693
 H          1.7710057294       -1.2570740201       -0.0828132285
 H         -1.9514488834       -0.8750364834       -0.2466181413
 H         -1.3853728410        0.0070221784       -1.6755386954
 H         -1.9467438036        0.8870087125       -0.2434762285
 H          0.8004597775        1.3029981224       -1.5484680118
 H          0.2558677867        2.1441337388       -0.0916934197
 H          1.7788015641        1.2470696244       -0.0798748112
 H          0.7278947236       -0.0112506202        1.8106368208
