! pbe def2-sv(p) def2/J RI DEFGRID1 loosescf d4 GCP(DFT/SV(P)) printgap
%output
    printlevel normal
end
* xyz 0 1
C 4.8255528606 -3.4343134822 -1.7893614158
C 3.618311555 -3.7865688705 -0.9347552119
O 3.2291960634 -2.6726652494 -0.1076357145
C 2.4101431947 -1.7710708818 -0.6108122345
O 1.9257657468 -1.8185182777 -1.7194715262
C 2.1551178958 -0.653050853 0.3834122009
C 0.8232325045 0.0199698678 0.0918983095
H 0.7314897111 0.1891631174 -0.9893876805
C 0.6323185238 1.3545908849 0.7822182417
O -0.4224566151 1.6604210333 1.3019769411
O 1.6937664212 2.1084245344 0.726552877
C 1.594613662 3.464441239 1.2184955415
C 1.0806194826 4.3847849083 0.1240771153
S -0.5655832399 -1.0535803359 0.5924569721
P -2.1588238086 0.2082641806 -0.061406488
S -1.8207378564 1.6382642688 -1.3537653788
O -3.0938691347 -0.8618900751 -0.7823778541
C -3.5906981812 -2.0376677398 -0.1224557352
O -3.0843653378 0.5328812368 1.1982685058
C -3.0972984352 1.7152265873 1.9983671849
H 5.1384342194 -4.3110734175 -2.3466102327
H 4.5689494946 -2.6441973426 -2.4914279017
H 5.6446572346 -3.0981533673 -1.1597810537
H 3.8501517067 -4.5823323982 -0.2269774611
H 2.7679382197 -4.0685382751 -1.5619239628
H 2.9550135946 0.083457296 0.2750386499
H 2.1840918486 -1.062060602 1.3928858816
H 0.9270989302 3.4740702103 2.083588238
H 2.6120015744 3.7201052088 1.5132472724
H 1.0117585586 5.3973958063 0.5068146719
H 1.7523921778 4.3675166179 -0.72943831
H 0.0944269821 4.0629418304 -0.207366219
H -2.7621001236 -2.6021205932 0.3074810378
H -4.0840684493 -2.6142807028 -0.9007094351
H -4.2951636725 -1.754683347 0.6574476984
H -4.1132674065 1.795409052 2.3791175918
H -2.8448761485 2.5849309694 1.3922947109
H -2.3816394336 1.6153883658 2.8116656111
*
