! pbe def2-sv(p) def2/J RI DEFGRID1 loosescf d4 GCP(DFT/SV(P)) printgap
%output
    printlevel normal
end
* xyz 0 1
C 4.1765771195 0.1978430065 -2.2593907721
C 4.5676388219 -0.0440918702 -0.8171012393
O 3.6454862255 0.5396102421 0.1224663459
P 2.0654853797 0.3636416974 0.1090753947
S 1.0998452297 1.5159258209 -1.1567959955
O 1.702740945 0.789038991 1.5849843766
C 2.3451947322 0.2716452384 2.778785044
C 1.5167814397 -0.8296202749 3.4124704225
S 1.9250890272 -1.7604410773 -0.0242461941
C 0.1420932443 -2.0794135632 0.0065849715
S -0.7392423186 -1.3392762946 -1.4146827918
P -1.9586256625 0.0328175575 -0.3781317132
S -2.7787612316 1.41461843 -1.4947831759
O -1.077048049 0.5077508893 0.8550160649
C -1.3024822725 1.804505411 1.4433315174
C -2.5977347933 1.8336317363 2.22437595
O -2.9629005867 -0.9287082299 0.4157364606
C -3.9820366946 -1.6855420564 -0.2620522559
C -5.2997195616 -0.9351495754 -0.2772267406
H 4.9446285719 -0.2016988962 -2.9137071521
H 3.2300647756 -0.2938684503 -2.4823977655
H 4.0587568628 1.2625554622 -2.4483432954
H 5.5165654561 0.438829856 -0.5767196417
H 4.631152476 -1.1155812661 -0.6085447167
H 3.3472897907 -0.0765098907 2.5236890844
H 2.4169208263 1.1398278695 3.4361597655
H 1.921394522 -1.0512006573 4.3951365249
H 0.4849682417 -0.5041230445 3.5197484508
H 1.5465369348 -1.7335841215 2.8095391415
H -0.297749707 -1.707406209 0.928430388
H 0.0493168171 -3.1597087392 -0.0774400731
H -0.4288287662 1.9625896229 2.076709024
H -1.3070477021 2.5530963651 0.6438555271
H -2.6111495582 1.0377916169 2.9642758804
H -2.6960242447 2.7946311486 2.7190707371
H -3.4362082725 1.6972029417 1.5423668611
H -3.6468075841 -1.9076020297 -1.280871973
H -4.0614422284 -2.6138232303 0.3070464741
H -5.6085871785 -0.7017623043 0.7377700275
H -5.1963996542 -0.0072608159 -0.8357218852
H -6.0567661328 -1.5510972085 -0.7515743579
*
