! pbe def2-sv(p) def2/J RI DEFGRID1 loosescf d4 GCP(DFT/SV(P)) printgap
%output
    printlevel normal
end
* xyz 0 1
C 3.0403806071 0.8724845652 -2.2092998589
C 2.1888649125 -0.3783010991 -2.2547460164
O 1.3240896927 -0.4983558007 -1.105077283
P 1.8108591604 -0.517123413 0.3988251633
S 2.3767093859 1.1348025427 1.3047607306
O 2.9466753976 -1.628621513 0.3299969507
C 3.8202654662 -1.9063889683 1.4419026253
C 5.1351573838 -2.4244615698 0.8942459223
S 0.2181647544 -1.5147826479 1.3410759903
C -0.6971124426 -0.1100725464 2.0569856541
S -2.3566437051 0.0813756592 1.3711204726
P -1.8366273481 0.7584342333 -0.5777680169
S -0.4291567561 2.1124262854 -0.6804509521
O -3.2413317908 1.2054139445 -1.1781797696
C -3.7768444407 2.5303586153 -1.0121196118
C -4.1501325978 2.8283782006 0.4254357354
O -1.5196636738 -0.5241514639 -1.439828889
C -2.4898992173 -1.5724038138 -1.7158117359
C -2.1879797502 -2.8153283634 -0.9033946245
H 3.7362619689 0.8238368521 -1.3722866094
H 3.6000549949 0.9661057836 -3.1345044986
H 2.4092179526 1.7501914386 -2.0782241486
H 2.8083997354 -1.2764371614 -2.3075049106
H 1.4886550708 -0.3531359015 -3.0918622863
H 3.9600171572 -0.9832566536 2.0148713866
H 3.3290179409 -2.6510465008 2.072583614
H 4.9630397856 -3.3119381634 0.2921355993
H 5.6115539887 -1.6661971775 0.2786921811
H 5.7899072118 -2.6732524491 1.7228090695
H -0.113839984 0.8011464842 1.8956488529
H -0.8319520218 -0.3051641313 3.1176384458
H -3.0352311608 3.2490430255 -1.3743541423
H -4.6507756402 2.5371097854 -1.6651593666
H -4.6798091543 3.7747181998 0.4667275539
H -4.7839911012 2.0404817735 0.8242225622
H -3.2526482526 2.9015780621 1.0373835885
H -3.4918333864 -1.192678074 -1.5099006607
H -2.3816790258 -1.7630094188 -2.7847921042
H -1.1553810349 -3.1195590691 -1.0536361989
H -2.3435064839 -2.634946347 0.157437749
H -2.84757043 -3.6139662525 -1.227740494
*
