! r2scan-3c def2/J RI DEFGRID2 scfconv6 printgap
%output
    printlevel normal
end
%cpcm
    smd true
    smdsolvent "water"
end
* xyz 0 1
C -3.0652789961 -0.3928264648 -6.44561e-05
C -1.6074526625 -0.0423741252 0.0001478052
C -1.1781055836 1.2755838998 4.85988e-05
C 0.1740117745 1.5711828477 -9.42371e-05
C 1.1318564337 0.5685114897 -0.0001128621
C 0.710450696 -0.7655186407 -3.99739e-05
C -0.6466714341 -1.0464986965 9.92972e-05
C 1.712176662 -1.8800322645 -3.87948e-05
C 2.590695969 0.9103999083 6.96805e-05
H -3.3129153323 -0.9810108329 -0.8824997482
H -3.3114319676 -0.9888446472 0.8774683904
H -3.679278535 0.5039253213 0.0043323054
H -1.9018711592 2.0782785956 9.22336e-05
H 0.4901242372 2.6051769912 -1.5219e-05
H -0.9707019884 -2.0785342515 9.10515e-05
H 2.3516013399 -1.8188587129 0.8795560291
H 1.2131201647 -2.8453190368 -0.0003455151
H 2.3520350379 -1.8185494111 -0.8792958264
H 2.7316584388 1.9880325787 -0.0008037304
H 3.0809919377 0.4962998877 0.880189997
H 3.081647667 0.4947660003 -0.8789494077
*
