! pbe def2-sv(p) def2/J RI DEFGRID1 loosescf d4 GCP(DFT/SV(P)) printgap
%output
    printlevel normal
end
* xyz 0 1
C 3.2586441294 0.1481638688 3.234800385
C 1.8859533159 -0.254746035 2.7408896479
O 1.6014387633 0.3400254861 1.4553662483
P 2.3089452777 -0.1631399518 0.1344038895
S 2.8570643347 -2.0500582178 0.1425113032
O 3.4411790235 0.9352314086 -0.0456082568
C 4.3306637028 0.9630291435 -1.1793265604
C 5.5914054373 0.1659750386 -0.9042855897
S 0.9018128575 0.3601306663 -1.3597505145
C -0.1204621894 -1.1268372825 -1.1809842305
S -1.1962866299 -1.0622047406 0.2660682136
P -2.5602228506 0.3757617519 -0.5369097926
S -2.9312034731 0.1416782024 -2.4456028474
O -1.9590467093 1.8048028358 -0.2406135153
C -2.0918155673 2.5486654206 0.994563019
C -1.3936360902 1.8710737846 2.1541430314
O -3.817112153 0.3217772392 0.4313892409
C -4.9158053975 -0.584936939 0.2196215412
C -4.5121780558 -2.0333927413 0.3996022551
H 3.4163342349 -0.2506746499 4.2318054408
H 4.0195615245 -0.253739504 2.5665978054
H 3.348266448 1.2308794704 3.2566830133
H 1.0909662367 0.1158975416 3.3887056722
H 1.809643931 -1.3424140179 2.6452975254
H 3.8057489743 0.5802229129 -2.0595599601
H 4.5537575417 2.0219179978 -1.3232795321
H 6.2619686721 0.2543120626 -1.7529522505
H 6.0863654446 0.5451692349 -0.0145736785
H 5.3501068728 -0.8837250109 -0.7519431503
H 0.5266626932 -1.9976507054 -1.0667875278
H -0.7323922336 -1.1990327859 -2.0810084178
H -1.6334870714 3.5094033482 0.754514587
H -3.1555210318 2.6825449778 1.2003993018
H -0.3493586889 1.6930481282 1.9089116517
H -1.452576083 2.5131642873 3.0275552469
H -1.8718309916 0.918852556 2.3769938197
H -5.6513457385 -0.2759041527 0.9637829068
H -5.3097948957 -0.4185361372 -0.7875342517
H -4.0181515957 -2.1756445336 1.3573405989
H -5.3979870671 -2.6587665558 0.3537132834
H -3.8298210357 -2.3318038209 -0.3947213002
*
