! pbe def2-sv(p) def2/J RI DEFGRID1 loosescf d4 GCP(DFT/SV(P)) printgap
%output
    printlevel normal
end
* xyz 0 1
C 1.330241783 0.2181076914 2.9561644082
C 2.8152827816 -0.0310176391 2.7893985761
O 3.2778323051 0.2932185193 1.4660997772
P 2.8558901566 -0.5432174099 0.1772254895
S 2.7641608483 -2.4797993197 0.4146374189
O 3.9816451734 -0.1274050823 -0.8433111037
C 4.2351609996 1.2479743812 -1.2333629954
C 3.9021227253 1.4337799953 -2.7000729583
S 1.0875992162 0.4272595747 -0.5593384852
C 0.025611937 -1.0214871831 -0.7887449921
S -1.2927870482 -1.1232934865 0.4394092626
P -2.5323966413 0.3659570839 -0.4627005101
S -2.6031896391 0.3343955715 -2.4178930189
O -1.9792952183 1.7637157773 0.0053657428
C -1.8014240416 2.1442293339 1.3917260956
C -2.9726642764 2.9757452713 1.8732096197
O -3.8876055643 0.2403335004 0.3554844688
C -4.6061471902 -0.9860608375 0.5872834792
C -4.9230479347 -1.7313296766 -0.6920000844
H 1.0606609425 0.0868702193 3.9990649486
H 1.0810985798 1.2291299956 2.6436770518
H 0.7617037905 -0.4930520493 2.3575389513
H 3.0558802368 -1.0791161504 2.9919021781
H 3.4076970977 0.6179667702 3.4360520044
H 3.6444903055 1.9155810353 -0.6024850399
H 5.2975813392 1.4072683294 -1.0432510684
H 2.8364352518 1.2984103467 -2.8699710388
H 4.1840869671 2.4365174149 -3.0049609291
H 4.4472756125 0.7095614989 -3.2989390864
H 0.6298695459 -1.9257402341 -0.688397295
H -0.4296035692 -0.9479722872 -1.7776617719
H -1.6803842564 1.2413832107 1.9970931696
H -0.8748955281 2.7215836438 1.3953165672
H -2.7863544405 3.2950489808 2.8937980959
H -3.0936461959 3.8496322236 1.2391163835
H -3.8882750682 2.3915230073 1.8400380243
H -4.0095250181 -1.6085922973 1.2597750487
H -5.5165671832 -0.6590417667 1.0926508211
H -5.4525441069 -1.0842341079 -1.387472095
H -4.0039935493 -2.0680155524 -1.1699636632
H -5.53904817 -2.5951911877 -0.4638749063
*
