! pbe def2-sv(p) def2/J RI DEFGRID1 loosescf d4 GCP(DFT/SV(P)) printgap
%output
    printlevel normal
end
* xyz 0 1
C 2.0493611777 1.0743436712 -2.6242337693
C 3.0781981627 0.017582416 -2.2740239071
O 2.7411245434 -0.6960902326 -1.0722878974
P 2.7629287982 0.0172954558 0.349041045
S 4.1009599934 1.4227424414 0.6045687553
O 2.9692240819 -1.3087518814 1.2010981199
C 3.47399214 -1.2638150602 2.549480879
C 2.4776054252 -0.652339499 3.5149250577
S 0.7405316197 0.551433067 0.6930070127
C 0.0321487467 -1.0914867534 0.2993935928
S -1.6776027537 -1.1646939784 0.8305473971
P -2.4390627971 0.1133733718 -0.7038035782
S -1.6153766368 -0.1899615842 -2.4558104976
O -2.2256030405 1.6236519358 -0.3128987333
C -2.9172916537 2.3685526179 0.7180913096
C -2.5570109046 1.9027047063 2.1137323959
O -4.0126170327 -0.041197462 -0.5644335358
C -4.7172950883 -1.2920216459 -0.4479523955
C -4.4156134079 -2.2416744444 -1.5880147255
H 2.0180891183 1.8366944565 -1.8451786742
H 2.3233013042 1.5449878801 -3.5629065956
H 1.0586199768 0.6352702325 -2.7277988122
H 4.0632671747 0.4759139281 -2.1399126111
H 3.1298142643 -0.7602473076 -3.0369142521
H 3.6786163896 -2.3089762773 2.7859990865
H 4.4078476545 -0.6930901018 2.5504711419
H 2.3200108021 0.3976079063 3.2693492181
H 1.5244303498 -1.1733635994 3.4668092462
H 2.8712830519 -0.721180938 4.5239840312
H 0.5815716533 -1.8603482085 0.8368112632
H 0.0760169916 -1.2488213961 -0.7802924758
H -2.5845201466 3.3929114086 0.5432403139
H -3.9908589638 2.2892334873 0.5378126556
H -1.4754041041 1.8663712998 2.2265189755
H -2.9670900032 2.6030202215 2.8346763149
H -2.9662097149 0.9142760899 2.3094273937
H -4.4529141187 -1.7441293007 0.5117826446
H -5.7673919295 -0.994405292 -0.4437135855
H -4.6179381849 -1.7646776173 -2.544262737
H -3.3669675215 -2.5349184029 -1.5657976885
H -5.0328402568 -3.1289693909 -1.4913168376
*
