! r2scan-3c def2/J RI DEFGRID2 scfconv6 printgap
%output
    printlevel normal
end
%cpcm
    smd true
    smdsolvent "water"
end
* xyz 0 1
C -0.7257267485 -1.2525928668 0.2414285525
C -1.4476560197 0.0022463636 -0.2416782298
C -0.721836857 1.2546639718 0.2418582887
C 0.7255566315 1.2525855575 -0.2418594795
C 1.4476392713 -0.0020539236 0.2416334228
C 0.7220343808 -1.2548091271 -0.2414186694
H -1.2415293434 -2.1429311093 -0.1244531937
H -0.7421684849 -1.2806981279 1.3335778463
H -1.4800128698 0.0025767014 -1.333715339
H -2.4766267016 0.0036165774 0.1240639132
H -1.2351483921 2.14667974 -0.1231219696
H -0.7375786384 1.2820787772 1.3339613939
H 0.7413204179 1.2801944235 -1.3338973213
H 1.2415198298 2.1430599676 0.1232808854
H 2.476560093 -0.0035958414 -0.1239922017
H 1.4798143298 -0.0016453915 1.3335692745
H 0.7386926024 -1.2832723309 -1.3335205663
H 1.2350301425 -2.1465397665 0.1246776518
*
