! pbe def2-sv(p) def2/J RI DEFGRID1 loosescf d4 GCP(DFT/SV(P)) printgap
%output
    printlevel normal
end
* xyz 0 1
C 2.6427930659 -2.6994991993 0.9692098048
C 2.6602384448 -1.3376806345 1.6347181845
O 1.823680734 -0.393151676 0.9459211608
P 2.2350902802 0.2365155835 -0.4625641005
S 4.1201077112 0.741818995 -0.6081590527
O 1.145533891 1.3854840555 -0.5706383932
C 1.4878517872 2.7802348489 -0.4380873459
C 1.8477033284 3.1395457509 0.9878649394
S 1.5752798038 -1.0908060443 -1.9751130951
C -0.2290884201 -0.929899578 -1.8730475294
S -0.8998526066 -1.4391847393 -0.2654900277
P -2.2914798306 0.1445487665 0.0494242788
S -2.0553607591 1.7738517052 -1.0056203664
O -2.2704150259 0.3205241925 1.6310858338
C -1.1768299996 0.980831344 2.2956398199
C -1.4092935855 0.8734269989 3.7887332279
O -3.7221441423 -0.4710390646 -0.1784602952
C -4.1691581056 -1.701278289 0.4507786379
C -4.2970455829 -2.7963096709 -0.588853224
H 3.1275889098 -2.6469916632 -0.0049924726
H 3.1783694952 -3.4092915582 1.5913091135
H 1.6180262654 -3.0381649274 0.8332576691
H 3.6778650135 -0.9352623847 1.6700280582
H 2.2409402 -1.3774946257 2.6410860753
H 2.3228779076 2.9986517717 -1.1100547862
H 0.5891690301 3.2983965151 -0.7788627851
H 2.7301989005 2.5801031204 1.2955674133
H 2.0660884704 4.2013772943 1.0415645688
H 1.0274068668 2.9049035969 1.6601167942
H -0.6072878449 -1.5948001201 -2.6458719767
H -0.5229835443 0.1061475495 -2.0579687197
H -0.2395257574 0.500296712 1.9988794566
H -1.1623863751 2.0235491487 1.9629340605
H -2.3579123372 1.3337967184 4.0498679979
H -1.4296105434 -0.1700742531 4.08889284
H -0.6069061025 1.3825218105 4.3128053735
H -3.4652280074 -1.9786117737 1.2379281346
H -5.1358599053 -1.4551156039 0.8921449517
H -4.9317183348 -2.461232781 -1.4045019363
H -3.3204356837 -3.060826996 -0.9864359665
H -4.7404051811 -3.6728873893 -0.1273732765
*
