! pbe def2-sv(p) def2/J RI DEFGRID1 loosescf d4 GCP(DFT/SV(P)) printgap
%output
    printlevel normal
end
* xyz 0 1
C 4.2132558777 -2.5107569339 0.8494809822
C 2.7311060593 -2.2312701423 0.696493575
O 2.5646900415 -1.240956234 -0.3365638155
C 1.4188443972 -1.1649533249 -0.9640539674
O 0.4595488436 -1.8847754639 -0.7436372298
C 1.4027118187 -0.0757396388 -2.0126386665
C 0.2833320286 0.9238955292 -1.7272068809
H 0.2038462436 1.6305128161 -2.5599933941
C 0.4710621913 1.737488064 -0.4549139299
O -0.4682292738 2.2086062608 0.1513473408
O 1.7310803046 1.8748408003 -0.1365388035
C 2.0560501207 2.6253099768 1.0520384834
C 2.0079754396 4.1213562843 0.7906011354
S -1.3780351502 0.1670823945 -1.6665756264
P -1.580633749 -0.5000960826 0.3496920449
S -0.2523386663 -0.3284989641 1.7806813676
O -2.9924005119 0.1666211796 0.7451140272
C -3.1916790946 1.5354509061 1.0923619739
O -2.0698011568 -1.9996994894 0.2597886702
C -3.0148950366 -2.4702591726 -0.716493301
H 4.6185278677 -2.9039887833 -0.0782555978
H 4.73758051 -1.5953077638 1.1045904033
H 4.3576350154 -3.2385375728 1.6407866379
H 2.2936298352 -1.8277006702 1.6154222635
H 2.1678214152 -3.1258344109 0.4123659634
H 1.2127128335 -0.5399054898 -2.9815469437
H 2.3644916062 0.4351784112 -2.0137274363
H 1.3564903076 2.335203928 1.8416328856
H 3.0629721053 2.2933480287 1.3031875496
H 2.6692631784 4.379213472 -0.0319940721
H 0.9938808421 4.4276710182 0.5448120132
H 2.3260328554 4.6469367397 1.6846950933
H -3.0963965957 2.1644122602 0.2079158898
H -2.4575869583 1.8479004979 1.835471388
H -4.1981407565 1.586147391 1.5005096156
H -2.559378229 -2.4475386445 -1.7062422782
H -3.9139797171 -1.8561602371 -0.6982061383
H -3.2373715039 -3.4923339268 -0.4211084072
*
