! pbe def2-sv(p) def2/J RI DEFGRID1 loosescf d4 GCP(DFT/SV(P)) printgap
%output
    printlevel normal
end
* xyz 0 1
C 4.4181709385 -0.6470383702 -2.1459746909
C 4.5532775933 0.0577929833 -0.8120331936
O 3.505275898 -0.3053693696 0.1037617901
P 1.9907100504 0.1394932604 -0.1068074521
S 1.8238023053 1.9420943481 -0.8710204397
O 1.3981234237 -0.1564459205 1.3263966778
C 1.9328627068 0.3528665647 2.5660151044
C 1.5423708452 1.7993327378 2.7918758445
S 1.1154949942 -1.4232816097 -1.2202591004
C -0.0412471398 -0.4700805311 -2.2479257694
S -1.79502574 -0.7320724495 -1.8580206714
P -1.8222028638 -0.3492094885 0.249076543
S -1.1907355348 -1.7714395443 1.4338681713
O -3.3425247708 0.0707170967 0.4472862756
C -4.444048042 -0.8242650144 0.1900497131
C -4.8231384453 -1.6095268614 1.4301158839
O -1.0685242065 1.022722171 0.4493194049
C -1.5790862662 2.2730177756 -0.0908212509
C -2.3282508368 3.0467178924 0.9727468522
H 4.3203730744 -1.7196376717 -1.9983497569
H 3.5370078934 -0.2834543965 -2.6725453501
H 5.2976578017 -0.4434103391 -2.7482267004
H 4.5323094957 1.1441196225 -0.947068931
H 5.4664717408 -0.2347652063 -0.2920632978
H 1.4885517657 -0.3022215041 3.3183815709
H 3.0182199428 0.2258459849 2.5583773244
H 1.8836889935 2.1144842923 3.7728173173
H 1.9908354947 2.4391800087 2.0339698134
H 0.4608517971 1.8979559958 2.7360846596
H 0.06918529 -0.8128288592 -3.2740134331
H 0.208541192 0.5913735508 -2.1594564618
H -5.2562420872 -0.1661244724 -0.1251571779
H -4.1776522218 -1.4920296042 -0.6338148556
H -3.999622245 -2.24946948 1.7389142225
H -5.0608789794 -0.9316840263 2.2452244192
H -5.6891048919 -2.2254910052 1.2103327511
H -0.6899379405 2.8131766628 -0.4243878306
H -2.2220475733 2.0531744938 -0.9466255201
H -3.1871665587 2.4776507702 1.3182986736
H -1.6770156346 3.2508119962 1.8184467845
H -2.6649068721 3.9874641029 0.5484843243
*
