! pbe def2-sv(p) def2/J RI DEFGRID1 loosescf d4 GCP(DFT/SV(P)) printgap
%output
    printlevel normal
end
* xyz 0 1
C 3.0406017873 -1.6769502557 1.6901652247
C 2.8908805388 -2.30572519 0.3147260947
O 2.6765970339 -1.2891092293 -0.6846798531
C 1.4595346593 -1.0031175494 -1.0698549027
O 0.4563091721 -1.5626987533 -0.6556109899
C 1.4300843448 0.0865868882 -2.1152245073
C 0.2947531459 1.0680093022 -1.8463425956
H 0.2427031208 1.8117536139 -2.6465757816
C 0.4104872275 1.8109185647 -0.5257478863
O -0.5399895792 2.3469480107 0.0081345652
O 1.6347984509 1.8213463252 -0.0690970171
C 1.8936895773 2.4914079707 1.1832225437
C 3.3909853687 2.6879281847 1.3041879553
S -1.3605565171 0.2760205046 -1.8903633094
P -1.6527955893 -0.3278998669 0.1119103786
S -0.5016605948 -0.2184238982 1.7094140618
O -2.9641630772 0.5782476713 0.2737879761
C -3.7216441227 0.6150766774 1.4851292921
O -2.363091854 -1.7564560552 -0.0152714624
C -1.7706700726 -3.0201965149 0.2805527596
H 3.8577489485 -0.9616487157 1.6886812326
H 2.1219182162 -1.1659855497 1.974293812
H 3.2465672639 -2.4537896015 2.4187966648
H 2.0490059996 -3.0028420438 0.2953139848
H 3.8089692173 -2.806724783 0.0057875763
H 1.2582850215 -0.3820114421 -3.0862046208
H 2.3898903609 0.6016263912 -2.1185406047
H 1.3469185659 3.4389421224 1.1867024294
H 1.4957437529 1.8597177296 1.9843608292
H 3.7527761375 3.3245524035 0.5024779033
H 3.6110426284 3.1525839037 2.2591552171
H 3.8944374025 1.7278025242 1.2486826288
H -3.0534863306 0.7052872503 2.3447192142
H -4.3211176101 -0.2907660435 1.5749984426
H -4.3569961826 1.4935618307 1.4073873355
H -1.2539434053 -3.3962946662 -0.5999219334
H -2.5941680519 -3.6739834318 0.5584460109
H -1.0650843451 -2.9167653358 1.1063844267
*
