! r2scan-3c def2/J RI DEFGRID2 scfconv6 printgap
%output
    printlevel normal
end
* xyz 0 1
C 5.4471717824 -1.1784690917 -0.8476438958
C 4.6357187741 -2.1407945683 -1.7000361157
O 3.3639675985 -2.3997765253 -1.0752318676
C 2.3132133672 -1.7092238431 -1.4651713911
O 2.3013670928 -0.9175203317 -2.3833991034
C 1.0823172384 -2.0732791809 -0.6526053058
C 0.3094973205 -0.7977382584 -0.3504009108
H 0.0476858863 -0.2900985502 -1.2908794168
C 1.1654578578 0.1852835408 0.4249652086
O 2.3755120361 0.1604304355 0.3924637909
O 0.4471613694 1.0624472614 1.0912955481
C 1.1412629876 2.1157475883 1.797444312
C 0.357097514 2.4890567169 3.0394303809
S -1.2432599556 -1.1548959871 0.5230225602
P -2.2471015861 0.6872611748 0.1430256029
S -1.5700955616 1.7850228266 -1.3313345119
O -3.762326546 0.2023268221 -0.0457473733
C -4.1666711986 -0.5412926018 -1.1995690673
O -2.375236486 1.4626141797 1.5100874324
C -2.9629225489 0.8410963526 2.6723553203
H 5.6317414607 -1.6108044097 0.1314417719
H 6.3928239945 -0.9688072684 -1.336168278
H 4.89518173 -0.2498056981 -0.7172994292
H 5.1189454997 -3.1157364384 -1.7741047495
H 4.4557754358 -1.7257719728 -2.6958735903
H 1.3939434011 -2.5766636471 0.2614810439
H 0.4594497651 -2.7461759411 -1.2435191094
H 2.1447256016 1.7516243927 2.0372248669
H 1.2219232312 2.9606687636 1.1074845703
H 0.2488706018 1.6271897067 3.691620174
H 0.8907906793 3.2725841642 3.5671354407
H -0.6263595254 2.8525424487 2.7573772919
H -3.8141824999 -0.0491820242 -2.1075137398
H -5.2532371598 -0.5547796383 -1.1736263039
H -3.7683426432 -1.5543901295 -1.1454897107
H -4.0236009002 0.6694878775 2.5020802325
H -2.8115263918 1.547338932 3.4844002379
H -2.4613482868 -0.1036619021 2.8821297191
*
