! pbe def2-sv(p) def2/J RI DEFGRID1 loosescf d4 GCP(DFT/SV(P)) printgap
%output
    printlevel normal
end
* xyz 0 1
C 3.5409826275 -0.8959763814 -2.980894009
C 2.2388225032 -0.5889176818 -2.2721178598
O 2.4691768163 0.3211286663 -1.1702247301
P 2.5342359963 -0.1372535529 0.3343532411
S 2.9657400978 1.4050474316 1.4564916491
O 3.5526134082 -1.3549808791 0.2705204626
C 3.6990222506 -2.3700538139 1.283172911
C 3.9716461848 -1.7935187753 2.6561078866
S 0.6848728395 -1.0831992787 0.7838487429
C -0.1648835558 0.4446926572 1.314616756
S -1.9379652663 0.1910840615 1.4224434011
P -2.4505915699 0.6150797873 -0.6174320413
S -0.9687185121 0.9152636323 -1.8580197611
O -3.3608513087 1.8993206817 -0.5942179748
C -4.5244654807 2.0464028995 0.2601214823
C -4.240781118 3.0581341522 1.3524676104
O -3.5188856673 -0.5075278902 -0.9710912603
C -3.3444786214 -1.9259252106 -0.7922435104
C -2.1385086244 -2.4636461869 -1.5333950512
H 3.3382904757 -1.5362998475 -3.8333903065
H 4.0013750749 0.0260902451 -3.3247028251
H 4.2268401262 -1.3990601415 -2.3040304359
H 1.7682538577 -1.4991689895 -1.8899142878
H 1.5339633669 -0.0645655804 -2.9210593486
H 2.7889854006 -2.9764174387 1.2912862159
H 4.54052152 -2.9667655123 0.9269563187
H 4.1556228904 -2.6016773925 3.3565906844
H 4.8374136885 -1.1361270456 2.6270085526
H 3.115099392 -1.2143858315 2.9982670261
H 0.0511231944 1.2278308274 0.5854460863
H 0.1920951779 0.7218708013 2.3042067755
H -5.3184117005 2.3903720989 -0.4044245842
H -4.7894853572 1.0730760338 0.6779507422
H -5.1482203978 3.2275749151 1.9231397951
H -3.4649156338 2.6917437465 2.0202901346
H -3.9127545381 3.9965938702 0.9138812509
H -3.2627588692 -2.1300239104 0.2790831562
H -4.2734945302 -2.3456804208 -1.18186658
H -2.1219786715 -3.5458582528 -1.4565891101
H -2.1783713933 -2.1754158836 -2.5811168575
H -1.2223648899 -2.0663072051 -1.0985728813
*
