! wb97x-v def2-tzvp def2/J RIJCOSX DEFGRID2 scfconv7 GCP(DFT/TZ) printgap
%output
    printlevel normal
end
%cpcm
    smd true
    smdsolvent "water"
end
* xyz 0 1
C 5.510477658417559 -2.161979351289788 -0.5037921789553339
C 4.490158008685602 -1.2031843004642795 -1.0584493441954093
O 3.546217725003284 -0.9016094005749632 0.02823762692213509
P 2.490029353137606 0.306793471104545 -0.08507667260123183
S 3.1483311609128464 2.077294145510274 -0.5433099242540542
O 1.8351750239672138 0.2917418351816999 1.375288253198444
C 1.3224881849881487 -0.9432013180321598 2.002004866448309
C 2.2934096603808514 -1.4277817681723755 3.048689866186876
S 1.1029693654104347 -0.537303377224357 -1.4614072423939033
C 0.14091003171013333 0.9486746886909181 -1.9374103254223303
S -0.9243758843127201 1.7117426638592437 -0.6499835726140893
P -2.418035457462586 0.2179591875234948 -0.45384284844580214
S -3.065302441942389 -0.6027881057222547 -2.094045265279982
O -3.5885632145545823 1.006578472760935 0.317022139994243
C -3.363496753224929 1.6154635381515803 1.6438800949014214
C -4.703917906826898 1.7171858619024565 2.3224346939417235
O -1.7303359847894433 -0.7622227622315975 0.6205133276120429
C -2.2222978555017012 -2.127783557109944 0.8569506894243439
C -3.5205962334984235 -2.1339230205013386 1.6263076310560243
H 6.217693614943735 -2.4233354960943343 -1.296859114345774
H 6.066542134063954 -1.7066440570807 0.3202903572742384
H 5.03295860247915 -3.0803607868780105 -0.15073988174206304
H 3.926722086645268 -1.6428932694421774 -1.8871217810269796
H 4.948613257761796 -0.2654168279726062 -1.387555628116798
H 0.36641613719868765 -0.6504968052267438 2.441194666979223
H 1.1377609990286086 -1.695758912870273 1.2292321722835697
H 1.8575644966888758 -2.295472020210351 3.554952384800968
H 3.2446032768049333 -1.7294787146539745 2.6028414324365947
H 2.4780324018767255 -0.6517651062251063 3.797040526949903
H -0.47767142336588514 0.6417653971045946 -2.7860894531709826
H 0.8267520534923808 1.741038767651658 -2.251623240542353
H -2.6699931309755334 0.9884286070624861 2.210962728176105
H -2.917659142363057 2.602036051300373 1.4826721850978968
H -5.142690495332476 0.7266467324587633 2.4716062846583493
H -4.568440177665877 2.1872088510634704 3.301392792145629
H -5.393765213677385 2.3313114073386534 1.7372248321570405
H -2.313573390764543 -2.6309506830603437 -0.11067569711199264
H -1.4144995433772671 -2.5932247305092098 1.426026541039869
H -3.780442375966992 -3.1711624071100473 1.8625333429846982
H -3.4216846796304656 -1.582179175020811 2.5658234455751905
H -4.339786448638092 -1.705065286767194 1.0415984667364466
*
