! pbe def2-sv(p) def2/J RI DEFGRID1 loosescf d4 GCP(DFT/SV(P)) printgap
%output
    printlevel normal
end
* xyz 0 1
C 3.7819589096 0.6530518746 -3.0198506143
C 2.4963811913 0.4580245248 -2.2428313127
O 2.8245451592 -0.1918744932 -1.0006261512
P 2.0423742697 0.0212176846 0.3633819302
S 1.4755211944 1.8464729125 0.7614538861
O 3.086485076 -0.4668616227 1.4380524843
C 3.813725941 -1.7213226507 1.3491555486
C 3.3505242296 -2.6736888653 2.4335966792
S 0.6102282141 -1.5694226765 0.291971881
C -0.2467032552 -1.222831541 1.8440095625
S -1.3538432673 0.2339259591 1.804989074
P -2.0317835962 0.1916437857 -0.1937301003
S -0.9122831733 0.6938356125 -1.7341453643
O -3.3461090046 1.0819348853 -0.0958523798
C -3.3378709426 2.497485708 -0.3379329208
C -2.5623059738 3.2490456069 0.7251907016
O -2.6037888911 -1.2822298004 -0.2157791048
C -2.8623034556 -1.997374676 -1.4424233086
C -4.0563497261 -1.4274990993 -2.1782833744
H 3.5505807419 1.1186886142 -3.9719994077
H 4.4607651312 1.2927006344 -2.4623631316
H 4.2603128557 -0.3064399533 -3.1933516228
H 1.7899729934 -0.1783889892 -2.7817539214
H 2.0066241652 1.4130530803 -2.0263037314
H 3.6727327516 -2.1475860925 0.3543024394
H 4.8601862875 -1.4446218604 1.484714301
H 3.4027618062 -2.1861888111 3.4032252935
H 2.3286664662 -2.9963324052 2.2504406349
H 3.999390428 -3.543762609 2.437382931
H 0.478027392 -1.0233913651 2.6325941776
H -0.8428490184 -2.1050700808 2.0656881375
H -2.9045385656 2.6786873758 -1.3273891945
H -4.3937937509 2.770961693 -0.3372631238
H -1.5042615017 2.9852338385 0.6768789814
H -2.6607928027 4.3170844836 0.5600754099
H -2.9361214941 2.9987017473 1.7151136314
H -1.9633203277 -1.9519754568 -2.0655017056
H -3.0362212034 -3.0226609272 -1.1141580084
H -3.8328208748 -0.4161260238 -2.5158213022
H -4.2781735521 -2.0471570027 -3.0413727478
H -4.9213770816 -1.3944762105 -1.5212758114
*
