! pbe def2-sv(p) def2/J RI DEFGRID1 loosescf d4 GCP(DFT/SV(P)) printgap
%output
    printlevel normal
end
* xyz 0 1
C 2.5987954752 0.4794849819 -2.6889403357
C 1.7438503256 1.3918350675 -1.8363313138
O 1.2346760177 0.718194481 -0.6705093804
P 2.1661956194 0.3352693214 0.5543501024
S 3.5596132628 1.6325984728 1.0078389394
O 2.7018317711 -1.1090631771 0.1306237951
C 3.8605166715 -1.6935571768 0.7486265977
C 3.5842595309 -2.1292916386 2.1736829347
S 0.6814102799 -0.0199068865 1.9943867057
C -0.2252589364 -1.3998207975 1.1869339897
S -1.9912776597 -1.0772816447 1.0888905599
P -2.0049287133 -0.0153869303 -0.7616652872
S -0.9783347075 -0.8888254539 -2.1823576016
O -1.4800542625 1.4591366537 -0.5434553121
C -2.196084236 2.5395338259 0.101028726
C -2.4444560128 2.2897841974 1.5744927706
O -3.5521780012 0.2393067365 -1.0145556731
C -4.5851160441 -0.7581280581 -0.9065312617
C -4.3354399388 -1.962271003 -1.7895635241
H 3.504246476 0.2043574661 -2.1505931226
H 2.0415054233 -0.4214244384 -2.9365578089
H 2.8716229759 0.9968891942 -3.6032208813
H 0.8429332882 1.7065438685 -2.3662723015
H 2.3108982398 2.2682099552 -1.5055559009
H 4.10447687 -2.5402112336 0.1055648063
H 4.6718711866 -0.958804889 0.7242264192
H 4.4684081355 -2.6124798526 2.576980137
H 3.346697602 -1.260964767 2.788050777
H 2.7498713602 -2.8250775312 2.2052286898
H -0.1053122085 -2.2821875647 1.8092127851
H 0.1707329088 -1.5524318649 0.1817880276
H -1.5368646565 3.3964435684 -0.0498411534
H -3.1341722717 2.6936874707 -0.4352295727
H -3.1541144532 1.4774393041 1.7145846101
H -1.5148703917 2.037071635 2.0811380937
H -2.8522961226 3.192938204 2.0180349669
H -4.6618700377 -1.0580002283 0.1420313676
H -5.4877105672 -0.2233122982 -1.2077920209
H -3.44261626 -2.4916121397 -1.4609082413
H -5.1864556094 -2.6330535138 -1.7311984913
H -4.1902980148 -1.6531965506 -2.8220484479
*
