! pbe def2-sv(p) def2/J RI DEFGRID1 loosescf d4 GCP(DFT/SV(P)) printgap
%output
    printlevel normal
end
* xyz 0 1
C 2.5104311024 -1.7019436377 2.8687621325
C 1.6513370101 -0.4625348815 2.7322607155
O 1.1790750854 -0.2649630765 1.3830129313
P 2.1014552723 -0.0872500812 0.1087008547
S 2.9048501669 -1.6920374617 -0.693192124
O 3.1409109613 1.0046495263 0.6107342134
C 4.3690267789 1.2712009935 -0.0893404213
C 4.1267062218 1.9787579141 -1.4063505625
S 0.7580624933 0.9559701331 -1.1575446515
C -0.0471858836 -0.5102193328 -1.8446532765
S -0.9238409695 -1.4737343875 -0.5866251752
P -2.3411620465 0.0255297544 -0.0885621144
S -2.9765864501 1.1291230297 -1.5846994303
O -1.714608542 0.8501912164 1.1099592682
C -1.6508989909 2.2927740577 1.1582515526
C -0.4079046469 2.7103021269 1.9167749338
O -3.4222603683 -0.782715353 0.7446787735
C -4.0353253567 -2.0210522838 0.3409775796
C -4.6789588391 -1.940455956 -1.0280519218
H 3.4266409082 -1.5906971049 2.2899752497
H 2.7666115729 -1.8506640642 3.9130922676
H 1.9759614865 -2.5750981412 2.5007722771
H 2.2005274541 0.4313307262 3.0369140552
H 0.7290114814 -0.5496225405 3.3096800198
H 4.9376815592 1.8915179612 0.6045976899
H 4.8867512082 0.3207257762 -0.2538038831
H 3.521111698 2.8683843712 -1.2535869819
H 5.0791358108 2.2605833829 -1.8435728491
H 3.6050930751 1.3150474261 -2.094620961
H 0.7009708192 -1.1730716394 -2.2790513198
H -0.7539333594 -0.1540425325 -2.5940145256
H -1.6478970221 2.6851125724 0.1356299328
H -2.5546059578 2.636113437 1.6675782028
H -0.3979557108 3.792085554 2.0020308364
H -0.412757178 2.2687493821 2.9090899331
H 0.4869150716 2.3880827577 1.3901203973
H -3.2726191148 -2.8047435701 0.3650716088
H -4.7773270393 -2.2037841477 1.120449783
H -3.9188481888 -1.787891704 -1.7930099185
H -5.2058568709 -2.8667488902 -1.2332712565
H -5.3799289762 -1.1100569373 -1.0686808436
*
