! pbe def2-sv(p) def2/J RI DEFGRID1 loosescf d4 GCP(DFT/SV(P)) printgap
%output
    printlevel normal
end
* xyz 0 1
C 2.6952392572 -3.2098583084 -0.0196796849
C 3.3691498999 -2.2950445657 -1.0205588242
O 3.5532124981 -0.954705188 -0.506541307
P 2.4000718394 0.0750183698 -0.1702474809
S 3.0919427368 1.8996026053 -0.0529796822
O 1.6528154775 -0.4428099072 1.1481367823
C 1.8595436423 0.1603204075 2.4366288332
C 3.1887591367 -0.2638262715 3.026765732
S 0.9209717668 -0.3049425871 -1.637365851
C 0.0395010311 1.2613463518 -1.4130247972
S -0.7946805656 1.3934648907 0.1812585387
P -2.6001383443 0.3365443341 -0.2942546871
S -2.9591209209 0.1771346609 -2.2131838612
O -3.774155421 1.1184755375 0.4014386526
C -4.0706758063 1.1265446118 1.8198508817
C -2.9448013918 1.7097120003 2.6466987184
O -2.5567275276 -0.9917767649 0.5835844576
C -1.5366136059 -2.0027462352 0.5355121308
C -1.5955324096 -2.8254488221 -0.7359001478
H 2.6513681747 -4.2127083669 -0.4328238492
H 3.2581018759 -3.2305246434 0.9096891068
H 1.684497112 -2.8640686529 0.183519065
H 2.7892191551 -2.2326356348 -1.9452882047
H 4.3866980602 -2.6197700947 -1.2438537254
H 1.8115581605 1.2483248929 2.3277342064
H 1.0179878765 -0.1873513559 3.0371279587
H 3.9974206347 0.0611637473 2.3722053969
H 3.316230811 0.1966156687 4.0012249709
H 3.2309288405 -1.3447005823 3.1294774862
H -0.7009139412 1.3170156027 -2.212888654
H 0.7533276931 2.0832468933 -1.4649511531
H -4.9717116252 1.7387351464 1.8800830979
H -4.2945897175 0.1032529123 2.1261022671
H -2.0591669703 1.0801514995 2.5799779044
H -2.688935756 2.7055095967 2.2935764365
H -3.2591612442 1.767974354 3.6841447978
H -0.5593307677 -1.5230642375 0.6486839244
H -1.7448673747 -2.6180818578 1.4132241635
H -2.5984764847 -3.218992439 -0.8797820431
H -1.3356193598 -2.2165589067 -1.5997531647
H -0.8937466965 -3.650190517 -0.6636582009
*
