! r2scan-3c def2/J RI DEFGRID2 scfconv6 printgap
%output
    printlevel normal
end
* xyz 0 1
C 5.3378251865 -1.4005565494 0.1650045527
C 4.5938699739 -1.4594657361 -1.1542931121
O 3.1669841988 -1.4400603342 -0.9505729635
P 2.3887814498 -0.10123772 -0.5691973665
S 3.2219137532 1.590436743 -1.0697922242
O 2.1214602633 -0.1514742733 0.9953577756
C 1.615411162 -1.3320502283 1.6625232875
C 0.8765431421 -0.8886562659 2.9082273176
S 0.5580200287 -0.589671592 -1.5158942809
C -0.1428925715 1.0780117467 -1.406437557
S -0.654002134 1.5267075749 0.2725180555
P -2.399523152 0.341929876 0.2852027931
S -3.4877181623 0.3391756155 -1.3516230506
O -3.183971206 0.7592252866 1.6037635381
C -4.1718429999 1.8047437821 1.6161256408
C -3.5558839892 3.1696599045 1.3869747759
O -1.7911598646 -1.055028584 0.711288534
C -2.532671699 -2.2887925524 0.5607501495
C -1.5519809424 -3.410553662 0.287194892
H 5.0589062257 -2.239828917 0.796782501
H 6.406539691 -1.4330413952 -0.0220153311
H 5.0968729561 -0.4704326274 0.6799524966
H 4.7754133207 -2.3952355081 -1.68437376
H 4.8689074363 -0.6117976485 -1.7892060951
H 0.9564394999 -1.8702703432 0.9746346837
H 2.4718173414 -1.9631938822 1.9097526682
H 1.5256562371 -0.2716245546 3.5227855548
H -0.0035213369 -0.3090546259 2.6398820061
H 0.5691060348 -1.7636712839 3.471946288
H -1.011219564 1.1025252418 -2.0658370005
H 0.6095759949 1.8047348699 -1.7140460959
H -4.9168536547 1.5843366909 0.8449926434
H -4.6245237148 1.7262057746 2.6053327784
H -4.3141391956 3.9345415705 1.5203700458
H -2.7422967968 3.3401535226 2.0876204626
H -3.1628555672 3.2354131002 0.3730273555
H -3.0866999884 -2.4550907685 1.4869868271
H -3.2397929042 -2.1720027569 -0.2676935676
H -0.8723279986 -3.5288853028 1.1260955422
H -2.1039099394 -4.3335467418 0.1415773394
H -0.9781483661 -3.1928952337 -0.6106926739
*
