! wb97x-v def2-tzvp def2/J RIJCOSX DEFGRID2 scfconv7 GCP(DFT/TZ) printgap
%output
    printlevel normal
end
%cpcm
    smd true
    smdsolvent "water"
end
* xyz 0 1
C -3.091954973803501 0.3835583243188566 0.00788022865002314
C -1.6274077885816374 0.04549362230932894 -0.0070310031086705796
C -1.1997582681210415 -1.2866678841020611 -0.006614065385777473
C 0.15784265786330026 -1.59058674518924 -0.0013013880070712298
C 1.1390877551277772 -0.5960160804974144 0.0019537015946824252
C 0.6950347988952862 0.7328740468123706 -0.00042996505964754546
C -0.661459439146805 1.0513329033173895 -0.0052508421160479095
O 1.5802298084580835 1.7937332535708836 -0.0005791570479530972
C 2.6050868164182934 -0.921700109815966 0.003662059294197145
H -3.5380213936144234 0.1417758528676694 0.9795104115603167
H -3.2564717258639932 1.4470355311442056 -0.18209605631400758
H -3.6367338123299224 -0.1920388783771824 -0.7471556016658134
H -1.933387917086721 -2.08777003929008 -0.010465213639928236
H 0.4753591845476059 -2.630138370904619 -0.0020615109601801068
H -0.955015909675063 2.0972102187222754 -0.008620466580528069
H 2.486349964803121 1.456210021490911 0.0013026498119951696
H 3.112861559052857 -0.5161359046719262 -0.8807743838795193
H 3.111737443699086 -0.5129267123725284 0.8872110047141671
H 2.754852246717646 -2.0033731423113226 0.005654677476632297
*
