! pbe def2-sv(p) def2/J RI DEFGRID1 loosescf d4 GCP(DFT/SV(P)) printgap
%output
    printlevel normal
end
* xyz 0 1
C 1.9368213735 2.1463806614 2.0514734451
C 1.1902045702 0.876877327 2.4001430853
O 1.8347425705 -0.3311318238 1.9275777224
P 2.4801743431 -0.6358159203 0.5256541112
S 2.7776146602 -2.5664758385 0.3928718031
O 3.7629814548 0.2976163816 0.5257744184
C 4.5259676628 0.6733769319 -0.6355439526
C 5.00051549 -0.5176941492 -1.4411714727
S 1.2472143066 0.2066189746 -1.0075782893
C 0.1839037531 -1.2337790184 -1.2147730955
S -0.9977811679 -1.4311231709 0.148164539
P -2.216848799 0.2165456298 -0.386529465
S -2.5225833672 0.4723590536 -2.309301945
O -1.4976274274 1.3991824334 0.3771481058
C -1.6323790128 2.7751497992 -0.0443427373
C -3.0286436856 3.2973567347 0.2160932326
O -3.5215780592 0.0087130942 0.4914707501
C -4.5566307671 -0.9183989864 0.1075969656
C -5.8296529268 -0.519899588 0.8267056751
H 1.4445557928 2.9845648287 2.5358404968
H 2.964926452 2.086458904 2.3989504923
H 1.9347459928 2.307103417 0.974782471
H 0.176298713 0.8925719709 1.990918536
H 1.1432930162 0.7235704892 3.4797419078
H 3.9075997945 1.33295853 -1.2508467463
H 5.3660699804 1.2323646241 -0.219739148
H 5.5519363289 -1.2089160706 -0.8081882867
H 4.1501829532 -1.0485900077 -1.8667839834
H 5.6428466098 -0.1756389401 -2.246273442
H 0.7975645274 -2.1359839002 -1.2291825395
H -0.3610575545 -1.1002173526 -2.1495131244
H -0.8818009977 3.304123193 0.5438198015
H -1.3839501945 2.8367184109 -1.1083662866
H -3.2946187619 3.1559077664 1.2602086919
H -3.0715907049 4.3534734453 -0.030663557
H -3.7436112713 2.7592223365 -0.4052953728
H -4.6792978064 -0.8753776255 -0.9800979156
H -4.2353337063 -1.9243786821 0.3909720567
H -5.6645346895 -0.5250017208 1.9001144464
H -6.1373183399 0.4762464548 0.5217214167
H -6.6139386308 -1.2278447643 0.5797505893
*
