! pbe def2-sv(p) def2/J RI DEFGRID1 loosescf d4 GCP(DFT/SV(P)) printgap
%output
    printlevel normal
end
* xyz 0 1
C 4.0365906345 -2.6001110996 0.982914422
C 2.583668132 -2.3812059171 0.6124063385
O 2.5306194328 -1.3451829418 -0.3898575273
C 1.4029385994 -1.1438450439 -1.0245576519
O 0.3804685266 -1.776086518 -0.8203448446
C 1.498204411 -0.0277303594 -2.0392647263
C 0.4236744845 1.0261115257 -1.7607806648
H 0.4390912672 1.7822425536 -2.5507702177
C 0.6096746808 1.7245321231 -0.4249223925
O -0.3185882756 1.9598333942 0.322227886
O 1.8608270039 2.0149845404 -0.1889204485
C 2.1883464458 2.6730687171 1.0546921538
C 1.9605274826 4.1718508325 0.9557556173
S -1.2757764395 0.3500552691 -1.8175509102
P -1.6542577242 -0.2839889262 0.1620430727
S -0.5000976621 -0.5605220814 1.7406522411
O -2.8364186745 0.7602840593 0.4146266232
C -3.5529254176 0.8060873781 1.6511090226
O -2.5597118683 -1.5869876253 -0.0948755077
C -2.1277512108 -2.9406871265 0.0180815468
H 4.0970969064 -3.374627752 1.7399245696
H 4.6028341464 -2.9064287611 0.1084631004
H 4.4621482719 -1.6823035179 1.3760921721
H 1.9860163393 -2.0545158221 1.4697680511
H 2.1248638873 -3.283989356 0.1973711635
H 1.3190308842 -0.4479059493 -3.0296224228
H 2.4883729178 0.4233018647 -1.987473821
H 1.5792025825 2.2332925665 1.8499883333
H 3.2410239232 2.4368198929 1.2073677178
H 2.2802910093 4.6414030789 1.8799956184
H 2.5301756197 4.5835532405 0.1274246358
H 0.9042515712 4.381843657 0.8025497797
H -4.2447899109 -0.0342457137 1.7112513878
H -4.0909443287 1.7504720005 1.6421703047
H -2.8559729252 0.7727647327 2.4913557502
H -1.646345404 -3.2524999799 -0.9066458561
H -3.0269576533 -3.522298903 0.2070581634
H -1.4232713488 -3.0391714446 0.8458440306
*
