! r2scan-3c def2/J RI DEFGRID2 scfconv6 printgap
%output
    printlevel normal
end
* xyz 0 1
C 0.973978183 1.4892523332 2.4312907895
C 2.3843440113 0.9367995459 2.463069433
O 2.9312385944 0.7843819286 1.1434407079
P 2.5045580578 -0.3996409797 0.1697441415
S 2.210164094 -2.1310086222 1.0504927506
O 3.6642085887 -0.37093834 -0.9086973308
C 4.8830533096 -1.1269242652 -0.7532025532
C 5.7446597749 -0.5941677488 0.3725720026
S 0.9655898254 0.3952638317 -1.0463766068
C -0.0921775318 -1.0779947434 -1.137947308
S -1.2143207313 -1.241027782 0.2793719354
P -2.5113702834 0.3199964871 -0.288462276
S -2.9212992564 0.500449085 -2.2023952872
O -1.7772002923 1.5326376997 0.4150747582
C -2.1171965052 2.9106244035 0.1380937594
C -1.182394377 3.4906003258 -0.9050164214
O -3.7977165873 0.1648720027 0.6344832206
C -4.9409182363 -0.6130859648 0.2390662728
C -4.633066031 -2.0961403675 0.2068487664
H 0.9421739021 2.4076491114 1.8505857789
H 0.2932275802 0.7681120474 1.9804332038
H 0.6434750367 1.692244423 3.4449137592
H 2.4061234832 -0.0368716167 2.964213327
H 3.0719462782 1.6247280526 2.9573728404
H 4.6190642012 -2.1742065586 -0.5744202936
H 5.3749466921 -1.0272233797 -1.7216123849
H 5.9125248496 0.4718306294 0.2438638739
H 5.2510831538 -0.7608501675 1.3288475884
H 6.6976614984 -1.1139788111 0.3723861949
H 0.5214753497 -1.976174555 -1.151315803
H -0.6823104572 -0.9818442067 -2.0493164792
H -3.1575879027 2.967622013 -0.1931520274
H -2.0103897906 3.4166988586 1.0988432643
H -0.1486184246 3.3629010872 -0.5959682367
H -1.3187043845 2.982586787 -1.8572059026
H -1.3961667509 4.546979865 -1.0316128486
H -5.694494014 -0.3728313854 0.9901355027
H -5.2707185761 -0.2671918739 -0.7460271738
H -4.2030001132 -2.413384048 1.1535646749
H -5.5474214432 -2.6502977893 0.0207723313
H -3.921296251 -2.3111621344 -0.5893178906
*
