! pbe def2-sv(p) def2/J RI DEFGRID1 loosescf d4 GCP(DFT/SV(P)) printgap
%output
    printlevel normal
end
* xyz 0 1
C 4.1727555608 0.4045101503 -2.5994312742
C 4.6177860018 -0.2309847589 -1.2971093448
O 3.5013137366 -0.6716987735 -0.5025460377
P 2.5465387062 0.3667481556 0.2202301129
S 3.3602723875 2.0147772778 0.8907967973
O 1.9946866694 -0.6383242381 1.3124095861
C 1.2604601514 -0.1758654651 2.4630666256
C 1.1005560067 -1.3549227092 3.4002139407
S 0.9212566245 0.6575496237 -1.1310117909
C 0.4553326985 -1.0851508918 -1.3440004934
S -0.6401110764 -1.7128024393 -0.0369410213
P -2.1507203879 -0.25831113 -0.2531179064
S -2.5757905685 0.3012164876 -2.0874273393
O -1.6460141319 0.8673895007 0.7437298905
C -2.0289029764 2.2485869323 0.586981434
C -3.4891516709 2.4573923425 0.9255110517
O -3.3627573046 -0.8739398538 0.5648237903
C -4.2010484056 -1.908318307 0.0091043232
C -5.4808795729 -1.9557382287 0.8188430417
H 5.0463694071 0.6525579507 -3.1937054326
H 3.5384277242 -0.2762852561 -3.1614441223
H 3.6147806067 1.3181407965 -2.3952229388
H 5.2069885868 0.4776835821 -0.7067498291
H 5.194230216 -1.1413768885 -1.4672001983
H 1.8205404104 0.6427611242 2.9270712438
H 0.2862656418 0.2024403089 2.1370726861
H 0.5572609327 -1.0367720296 4.2837573354
H 0.5489762959 -2.1469901893 2.9007581063
H 2.0762988534 -1.7325440193 3.6912219144
H 1.3457546977 -1.7095578871 -1.3312772247
H -0.0639826441 -1.1403811145 -2.2995501922
H -1.3682233099 2.7868665195 1.2685159481
H -1.8171283759 2.5518661359 -0.443824463
H -3.7228333193 3.5162682096 0.8776543686
H -4.1111043866 1.9235271519 0.2077626877
H -3.7003213262 2.0818794592 1.9232062544
H -4.397507954 -1.670508603 -1.0418096711
H -3.6571634936 -2.8549625359 0.0663178172
H -6.1129353534 -2.7514599047 0.438601938
H -5.2506220251 -2.1456946699 1.8630340573
H -6.0100962535 -1.0102785915 0.7413040229
*
