! pbe def2-sv(p) def2/J RI DEFGRID1 loosescf d4 GCP(DFT/SV(P)) printgap
%output
    printlevel normal
end
* xyz 0 1
C 3.4208238554 -3.1413937178 0.405475071
C 2.9091489384 -1.8077938104 0.9249887285
O 2.7149504647 -0.8716376373 -0.1533234983
C 1.609477057 -0.9391242844 -0.8636088178
O 0.7032493754 -1.7242988437 -0.6607789234
C 1.5812827199 0.1038206108 -1.9610646483
C 0.3492295386 1.0009769017 -1.8140392003
H 0.3096152027 1.7056460072 -2.6491110587
C 0.3526335931 1.7790221603 -0.5136334565
O -0.6272190231 1.8304304543 0.2107793282
O 1.4899947561 2.3523007649 -0.2619376001
C 1.6311824924 3.0699649518 0.9864924144
C 3.0910501361 3.4449005149 1.137128967
S -1.2293458281 0.0830010341 -1.8955673576
P -1.6293397457 -0.4202606379 0.1250042775
S -0.5438869947 -0.5647593459 1.7705934898
O -3.0245548878 0.3158925321 0.4336978795
C -3.2081941676 1.4314423455 1.3010181349
O -2.2173713367 -1.8392768512 -0.3287070013
C -2.7558706892 -2.7732948572 0.607528174
H 2.6710165982 -3.6078273008 -0.2298425347
H 4.3326545252 -2.9950094261 -0.1669855064
H 3.624231492 -3.7962275674 1.2461714479
H 3.6411264322 -1.3240595869 1.5713017407
H 1.9616505476 -1.9292329801 1.4586738001
H 1.5181567558 -0.4118192198 -2.9198334464
H 2.488089013 0.7052562138 -1.9083594731
H 0.9843141283 3.9507558242 0.9466304578
H 1.2847930285 2.4190326422 1.7955383697
H 3.705839671 2.5501665554 1.1574648376
H 3.4025394924 4.0694825531 0.3057670302
H 3.2239150743 3.9897960084 2.0655571488
H -4.2291732198 1.3569620929 1.6683927902
H -3.0600719152 2.3559281726 0.7461818136
H -2.4972160353 1.3834292644 2.1278389229
H -2.0974801395 -2.8589847342 1.4750878629
H -2.8096451504 -3.7216651599 0.0788827375
H -3.7472354442 -2.4510237019 0.9269750909
*
