! pbe def2-sv(p) def2/J RI DEFGRID1 loosescf d4 GCP(DFT/SV(P)) printgap
%output
    printlevel normal
end
* xyz 0 1
C 2.6110364794 1.157947988 -2.3371594469
C 1.9669233562 -0.1992375774 -2.1357514543
O 2.5716147428 -0.9189306643 -1.0496879958
P 2.2115573321 -0.7477845544 0.490889657
S 2.5267164591 0.9930023374 1.3475852619
O 3.0579434115 -1.9318943672 1.1129831981
C 4.3896008057 -1.7366926749 1.6285161734
C 5.3796464218 -1.4497354888 0.5197305619
S 0.2863980044 -1.5892284492 0.6509145734
C -0.4660757611 -0.441320258 1.8617654819
S -2.2024751734 -0.1556498761 1.4920784735
P -1.9494836404 0.74147503 -0.430649496
S -0.4880170337 2.0439467176 -0.5077213052
O -3.4006494881 1.3007992198 -0.7407578358
C -3.9441401158 2.4162860604 -0.0034083237
C -5.1885673534 2.8859428774 -0.7287216573
O -1.7723433698 -0.3707377429 -1.5301469219
C -2.8060413482 -1.2545525974 -2.0362207788
C -3.2861402148 -2.2416313504 -0.9933224246
H 2.1883422729 1.6252140084 -3.220791099
H 2.41452036 1.8009218328 -1.4809879008
H 3.6851521794 1.0508650372 -2.4613545314
H 2.1254095391 -0.8464424886 -3.000562223
H 0.8926304866 -0.0939663994 -1.9521918919
H 4.3650486685 -0.9113289278 2.3474022317
H 4.6107580063 -2.6732254707 2.1416776
H 6.3813814023 -1.3924523565 0.9337743625
H 5.3393797792 -2.2333030216 -0.232196004
H 5.1344478952 -0.498199712 0.0489996451
H 0.0852523187 0.5035827412 1.830682764
H -0.4311053723 -0.8872857905 2.8524589306
H -4.1740002628 2.0761559197 1.0097109807
H -3.1846289669 3.2032033303 0.0466468045
H -5.6184936462 3.7236068179 -0.1896390176
H -4.9369103032 3.2007413813 -1.7375794932
H -5.9152044649 2.0805691877 -0.7800222653
H -3.6269898106 -0.6409060846 -2.4097231983
H -2.3084607348 -1.760041614 -2.8652451896
H -3.8522115971 -1.7341949032 -0.2157223754
H -3.9249351707 -2.9766448242 -1.4729989262
H -2.4377682074 -2.7477192512 -0.5372134908
*
