! pbe def2-sv(p) def2/J RI DEFGRID1 loosescf d4 GCP(DFT/SV(P)) printgap
%output
    printlevel normal
end
* xyz 0 1
C 5.5476276621 -2.1899092662 -1.454969614
C 4.9101861513 -1.093827281 -0.6161098773
O 3.6125197527 -1.4972645905 -0.1369076866
C 2.5687725276 -1.3023017879 -0.9162494925
O 2.6084903294 -0.787279062 -2.0111741795
C 1.2928122882 -1.8100979423 -0.2665264592
C 0.2239645696 -0.727067533 -0.351692403
H 0.1333639615 -0.3783427702 -1.3883028624
C 0.542525326 0.4792356481 0.5087791442
O -0.3070391489 1.041341161 1.1705824176
O 1.7950568127 0.8336552731 0.4296141734
C 2.2365081359 1.9804417737 1.1923990055
C 2.6333650304 1.5663397803 2.599320168
S -1.3979468817 -1.3597853518 0.1821739462
P -2.5360936787 0.4193323743 -0.1291335788
S -1.8459703684 1.8262671351 -1.3039584872
O -3.8275853012 -0.1914796091 -0.8308302076
C -4.6243330745 -1.2309789308 -0.2364703422
O -3.1890584874 0.8466813437 1.2638542561
C -2.752659747 1.8608028936 2.1681063093
H 4.960940886 -2.3609207913 -2.3546535358
H 6.5491269705 -1.8861061551 -1.7412099961
H 5.6016617602 -3.1137091429 -0.8857039387
H 4.7943301775 -0.1766893479 -1.2003346031
H 5.487450132 -0.9010363117 0.2881872921
H 1.4919835524 -2.0918384519 0.7661670818
H 0.9485413483 -2.6860903795 -0.8190306964
H 3.088101161 2.3634052742 0.6301587124
H 1.4296649737 2.7178911468 1.2068407095
H 3.3882620309 0.7858145905 2.5598144645
H 3.0343368519 2.4276915097 3.1228921654
H 1.766808072 1.1955180442 3.1413550747
H -3.9926922445 -2.0806397182 0.0257361475
H -5.3444867987 -1.5091842374 -1.0016332535
H -5.1275869235 -0.8502256792 0.6501806085
H -2.2750820844 2.6747809048 1.6231242348
H -2.0501148974 1.4371540843 2.8826036325
H -3.6534121798 2.2115348464 2.6673833761
*
