! pbe def2-sv(p) def2/J RI DEFGRID1 loosescf d4 GCP(DFT/SV(P)) printgap
%output
    printlevel normal
end
* xyz 0 1
C 5.2731780378 0.0969326515 1.2024691296
C 4.3989583383 0.8704446457 0.2353577828
O 3.560363851 -0.0001333699 -0.5483057501
P 2.1831277439 -0.6085638625 -0.0393013859
S 2.2489137886 -1.880418626 1.450506404
O 1.6391100503 -1.3060308132 -1.3429208132
C 1.9385323954 -0.9145286263 -2.7067384066
C 1.5374487049 0.5106139478 -3.020883565
S 0.994066078 1.1221137729 0.3454349684
C 0.0489131349 0.492727984 1.7525327652
S -1.1203565052 -0.8280654665 1.3297443219
P -2.4336815294 0.2567628775 0.050325631
S -1.9730578605 0.4884432525 -1.8421214764
O -2.6778995198 1.6078573017 0.8351219124
C -2.6519748968 2.9231378717 0.2389126622
C -1.5275752406 3.7513195081 0.8280111237
O -3.8275610312 -0.4623676219 0.3116483235
C -4.0366463763 -1.8835989066 0.3433395631
C -3.4617275616 -2.5905357662 -0.8675487297
H 4.6622527427 -0.4269341552 1.9340203732
H 5.8703737671 -0.634896155 0.6651817566
H 5.9317156652 0.7881964309 1.7184245885
H 5.0027199518 1.3922099424 -0.5099911735
H 3.767448646 1.5904690059 0.7636060374
H 3.0075663054 -1.0660213427 -2.868286685
H 1.3647027794 -1.628081898 -3.2998831256
H 1.7507356214 0.7120000565 -4.0658897121
H 0.4739963933 0.6569577276 -2.8457888006
H 2.0961460669 1.21164209 -2.4039953412
H -0.4888738565 1.3355718616 2.1788892828
H 0.7304237875 0.0423332263 2.4747588781
H -2.5374601601 2.8192454715 -0.845461717
H -3.6267042704 3.3600342133 0.4628242587
H -1.5878275927 4.7571579152 0.4253280379
H -1.619214656 3.7958283744 1.9098298417
H -0.5612341512 3.3245516389 0.5644045373
H -3.5925632803 -2.2743030077 1.2638585604
H -5.1227240112 -1.9840412677 0.3854774633
H -3.7204786116 -3.6438654918 -0.8286289138
H -3.8551964887 -2.1552159915 -1.7834802989
H -2.3752747729 -2.4948593447 -0.8762718271
*
