! r2scan-3c def2/J RI DEFGRID2 scfconv6 printgap
%output
    printlevel normal
end
* xyz 0 1
C 3.1924136116 2.3482936468 -1.3911031121
C 3.8910770826 1.8154157932 -0.1565343646
O 3.6133787085 0.4216105301 0.0464230829
P 2.1690617835 -0.0965943566 0.4699655119
S 1.3109367231 1.0465046436 1.8172677588
O 2.4541221442 -1.5938940912 0.8930407409
C 2.698246075 -1.9609959522 2.267654197
C 4.0429325513 -1.4580888473 2.7478361341
S 1.2418523889 -0.4655085933 -1.4082843741
C 0.2085444441 -1.8949548137 -0.9824511481
S -0.8966627102 -1.5936945839 0.4239211199
P -2.0495458254 -0.0857612689 -0.5012964358
S -2.4253216821 -0.340259505 -2.4109186698
O -1.2445127117 1.2100443125 -0.0990226292
C -1.3358241022 2.4448614418 -0.8382552931
C -2.7147596272 3.0587568238 -0.7322056947
O -3.3284303546 0.015202096 0.4315256783
C -4.4250286353 -0.9160533249 0.3243359077
C -5.6597273503 -0.2540681643 0.9019556148
H 2.1117562919 2.2824158495 -1.2573859802
H 3.4672068991 3.3863659995 -1.5474138769
H 3.4671422737 1.7629902886 -2.2648528563
H 3.5710027186 2.365643469 0.7349865015
H 4.9764197678 1.86021274 -0.2533214058
H 1.8885850897 -1.5567930327 2.883872605
H 2.649324684 -3.0505814562 2.2603668115
H 4.2338671466 -1.8381435678 3.7464751686
H 4.8296433257 -1.7895565142 2.0753819377
H 4.0401410162 -0.3692585949 2.7772303048
H 0.8374687988 -2.7404847904 -0.7180115412
H -0.3867601719 -2.1021519724 -1.8727238794
H -0.5727788283 3.0755124903 -0.3782434315
H -1.0757482635 2.2414293373 -1.8825016719
H -2.9887790604 3.1822791017 0.3123504314
H -2.7184807013 4.024867121 -1.2269501696
H -3.4437979035 2.4086184726 -1.215180361
H -4.5633405211 -1.1722166742 -0.7317157213
H -4.1582245566 -1.8185843677 0.8805388037
H -6.4871390864 -0.9551601647 0.8685657028
H -5.4747006514 0.0375365041 1.9317274518
H -5.9161240457 0.630806611 0.3262777619
*
