! r2scan-3c def2/J RI DEFGRID2 scfconv6 printgap
%output
    printlevel normal
end
* xyz 0 1
C 5.388701893 -1.4171377426 -1.2710501146
C 3.9741282912 -1.7004533674 -1.7384315839
O 3.0575937495 -1.7206756607 -0.6242155562
P 2.2221938855 -0.4408333605 -0.1804708331
S 3.2585164605 1.1874880052 0.1757909745
O 1.4154001376 -1.0492058967 1.03343316
C 1.8050143811 -0.8739654167 2.4158827324
C 0.914755966 0.1486609226 3.0933506945
S 0.7540259875 -0.3168869697 -1.6946150359
C 0.297171767 1.4206425825 -1.4432497775
S -0.4457199965 1.7311533753 0.1801309879
P -2.076055659 0.4023766351 -0.026655206
S -2.8995136516 0.3144256228 -1.8072608
O -3.0444412711 0.8480005819 1.1488020643
C -3.8666261552 2.028457712 1.0416312066
C -4.9321681792 1.9518880081 2.1162251732
O -1.4892645761 -0.9412869621 0.56333488
C -1.9302079105 -2.2372215685 0.114834697
C -3.3092359254 -2.5600891834 0.6495513932
H 5.4498091978 -0.4233354524 -0.8332000246
H 5.6883734456 -2.148071589 -0.5253189521
H 6.0625677144 -1.4719448635 -2.1198864346
H 3.8920737406 -2.6959581406 -2.1786525315
H 3.6424748956 -0.9535098612 -2.4653470771
H 1.6919367729 -1.8626436127 2.8633727823
H 2.8537455215 -0.5667274029 2.4587403767
H 1.097259388 1.139452612 2.6822557827
H -0.1309163853 -0.105481986 2.9362597536
H 1.1288314553 0.1595599286 4.1572174887
H -0.4172462887 1.6648528879 -2.2285851829
H 1.1865285782 2.0475766011 -1.4996872381
H -3.2260882795 2.9045236256 1.1752095183
H -4.3063118051 2.0562414098 0.0389173257
H -4.4657928248 1.8826497604 3.0945595304
H -5.5461741008 2.8453491381 2.072140481
H -5.5589023131 1.078266638 1.9617016051
H -1.9232665882 -2.2501484578 -0.9803815039
H -1.1692446004 -2.9207501979 0.4943133427
H -3.586333309 -3.5665488001 0.3522413835
H -3.3202237206 -2.4838558524 1.7334260477
H -4.0328633212 -1.8563992056 0.2392720471
*
