  20
        -27.12379561
 C         -3.3185213377       -0.7687074288       -0.5502847736
 C         -2.1631294354       -0.3909744191        0.3683668986
 C         -1.3415540946        0.7613675183       -0.2069160191
 C         -0.1559240133        1.1232118404        0.6829051880
 O          0.7669129179        0.0308547230        0.7966135754
 C          1.7158568724       -0.0946522514       -0.1244700674
 O          1.8648834364        0.6833657822       -1.0447482563
 C          2.5652952948       -1.3054569004        0.1209769683
 H         -3.9833342807        0.0798190588       -0.6932787396
 H         -2.9464326613       -1.0791443354       -1.5240891560
 H         -3.8913327813       -1.5878883364       -0.1237961736
 H         -2.5540240213       -0.0981242431        1.3446424938
 H         -1.5131642041       -1.2557515337        0.5159274542
 H         -0.9658394088        0.4929363721       -1.1973397388
 H         -1.9675355502        1.6479275417       -0.3135913676
 H          0.3760017198        1.9878852359        0.2740501050
 H         -0.4778595614        1.3232189504        1.7055861496
 H          3.6075793832       -1.0583776098       -0.0572106925
 H          2.2759939639       -2.0785868859       -0.5876878328
 H          2.4142263176       -1.6650467994        1.1328975452
