! pbe def2-sv(p) def2/J RI DEFGRID1 loosescf d4 GCP(DFT/SV(P)) printgap
%output
    printlevel normal
end
* xyz 0 1
C 2.3912735058 -4.5028022187 -1.0870902814
C 3.5665762017 -3.5432248441 -1.1862986745
O 3.3186680228 -2.3577637999 -0.4059992113
C 2.638584091 -1.3745605836 -0.9569665039
O 2.2393972106 -1.3629556797 -2.1003420105
C 2.4177708546 -0.2379186294 0.0257655455
C 0.9844120302 0.2586831972 -0.1033806473
H 0.7610291881 0.4553783184 -1.1600962106
C 0.6945837386 1.5263950427 0.6737798191
O -0.3226243204 1.6586944212 1.3249211373
O 1.6299719513 2.423043308 0.5405244195
C 1.4099011022 3.7307743019 1.1165607388
C 0.6524930863 4.6151015283 0.1401842582
S -0.1851524227 -1.0171239022 0.476886081
P -1.997220181 0.0398366509 0.0746983496
S -1.9987309025 1.5558607946 -1.1632062834
O -2.8566887937 -1.1184928235 -0.6013862222
C -3.1180559199 -2.3764646872 0.0431356824
O -2.8069619977 0.1791850337 1.443085764
C -2.8788215515 1.3081737119 2.3138584306
H 2.622331417 -5.4134675909 -1.6295235569
H 2.1914711324 -4.7425309617 -0.0465183802
H 1.5025100707 -4.0483494883 -1.5195469248
H 3.7406534788 -3.2488936354 -2.2251218811
H 4.4704046327 -3.9717234365 -0.7535005282
H 3.0945576936 0.5809580039 -0.2263965338
H 2.6261605559 -0.5932948849 1.0339597326
H 0.8538986031 3.6121857222 2.0497895681
H 2.4118781284 4.1127755305 1.3101128843
H 0.4968339193 5.5923437729 0.5844604489
H 1.2144801152 4.7248286561 -0.782974054
H -0.3149914711 4.1744630458 -0.0960708229
H -3.5869526019 -2.9948885916 -0.7179818165
H -3.786962488 -2.2262938058 0.8884335384
H -2.1824260791 -2.8243945114 0.3806050107
H -2.814751951 2.2328826521 1.7410218895
H -2.0656103152 1.2674328931 3.0354345744
H -3.8446000547 1.2301859726 2.8086227998
*
