! pbe def2-sv(p) def2/J RI DEFGRID1 loosescf d4 GCP(DFT/SV(P)) printgap
%output
    printlevel normal
end
* xyz 0 1
C 2.7521865129 -0.7175642758 -3.0699608144
C 2.7512430176 0.5416776274 -2.2242386529
O 3.2574545495 0.2776309551 -0.9039536637
P 2.3287935464 0.0523219956 0.3618998714
S 1.0192516458 1.4847179522 0.696945672
O 3.5070082389 -0.0465644241 1.4061591822
C 3.2938957401 0.1755895763 2.8133220082
C 2.4323079806 -0.9009612383 3.4427924838
S 1.6306160719 -1.9506378819 0.2598817666
C -0.0375565938 -1.7866954892 -0.4436171015
S -1.2678756731 -1.076469788 0.6931805835
P -2.0056907748 0.5343004883 -0.4970983409
S -1.0932130401 0.8168034734 -2.2081026128
O -2.0393243589 1.8289090222 0.3974253641
C -2.9826969254 2.0975900657 1.4619878091
C -2.8619498627 1.1104247233 2.6029511159
O -3.568221717 0.2366896923 -0.6441790664
C -4.1272028786 -0.5684907129 -1.6946352695
C -3.6851994212 -2.015974638 -1.6210250068
H 2.4240033233 -0.4658121647 -4.0734264388
H 3.7540866929 -1.1353586854 -3.1076166575
H 2.0775946648 -1.4636707598 -2.6572420487
H 1.7475292887 0.9771055112 -2.1564035346
H 3.4299539605 1.2901420608 -2.6382577779
H 4.3020778945 0.1803071043 3.2298095275
H 2.834177747 1.1610189462 2.9414980815
H 2.836650806 -1.8856748308 3.2225313586
H 2.4040743471 -0.7534516587 4.5176934165
H 1.4165777778 -0.8426991009 3.0525165375
H -0.3357003646 -2.8077763348 -0.6682697224
H -0.0145710261 -1.1671775007 -1.3451417193
H -2.7150594507 3.1079912739 1.7754825196
H -3.9889150944 2.0900494901 1.0376088333
H -1.8341466115 1.0734260565 2.9563671766
H -3.5095730526 1.4246396727 3.4154557184
H -3.1577277317 0.114618621 2.276069364
H -5.2038847022 -0.4690444069 -1.548224353
H -3.8409548792 -0.1284747663 -2.655110786
H -3.8502497917 -2.4135761562 -0.6229681917
H -4.2538222203 -2.5974654831 -2.3396177358
H -2.6272430877 -2.09268289 -1.8662712481
*
