! pbe def2-sv(p) def2/J RI DEFGRID1 loosescf d4 GCP(DFT/SV(P)) printgap
%output
    printlevel normal
end
* xyz 0 1
C 2.804089835 1.8829966564 -2.0138072549
C 3.4801865272 2.0352203919 -0.6657065018
O 3.5118343522 0.7920107971 0.057870251
P 2.2730918912 0.2698428246 0.9067853049
S 1.3496477529 1.6364903955 1.9551463559
O 2.9231999757 -0.8267629991 1.8349494232
C 3.9069071081 -1.8036220683 1.4002104962
C 3.2677149477 -3.1615899195 1.1868615505
S 1.1168921889 -0.8056539191 -0.5374867631
C -0.0739504431 -1.5269829152 0.6240358313
S -1.4235027187 -0.4057548432 1.0752620912
P -2.1767282404 -0.1396115502 -0.9046978432
S -1.9461471083 -1.6505810344 -2.1265037032
O -1.4758998832 1.1293076201 -1.5234199117
C -1.146429931 2.3762820817 -0.8652994942
C -2.317320758 3.0227287209 -0.1584838439
O -3.6615705032 0.3727319802 -0.6740347628
C -4.6437600407 -0.249020215 0.1739466972
C -4.8616079059 -1.7127983152 -0.1474083223
H 2.8790399772 2.818934342 -2.5579148707
H 3.2823614796 1.0942554194 -2.5885520715
H 1.7525031657 1.6297539022 -1.8899647432
H 2.970130663 2.783600909 -0.0499795793
H 4.5317568891 2.3041121608 -0.7771323484
H 4.3907905849 -1.4417625846 0.4922919089
H 4.6298679354 -1.8326772799 2.2170164183
H 2.5871354826 -3.1422560923 0.3389513195
H 4.0495987881 -3.8885818935 0.9903025792
H 2.7210571139 -3.4633289133 2.076501104
H 0.4259733127 -1.7992502897 1.5514677127
H -0.4915187197 -2.3979024219 0.1192656086
H -0.3341440607 2.1885880542 -0.1553677282
H -0.7817907096 2.9974094321 -1.685189691
H -2.0133698473 4.0073546609 0.1837402858
H -3.1629571777 3.1174240687 -0.834596808
H -2.612891904 2.4317781321 0.7060359965
H -4.3252822147 -0.1248954661 1.2130686525
H -5.5463663504 0.336937808 -0.0084868799
H -5.1050833107 -1.8375877726 -1.1998340998
H -3.9590153304 -2.2838531793 0.0645813199
H -5.6752869783 -2.0971479569 0.4592314549
*
