! pbe def2-sv(p) def2/J RI DEFGRID1 loosescf d4 GCP(DFT/SV(P)) printgap
%output
    printlevel normal
end
* xyz 0 1
C 4.4416244761 0.40848642 -2.0381843007
C 4.5752388369 -0.0446017481 -0.5982600418
O 3.3384615994 -0.5596990952 -0.0829234303
P 2.0836016187 0.3890792024 0.2095962939
S 2.5551681945 2.1486239294 0.9306754867
O 1.218235942 -0.5472524265 1.1419512908
C 1.6223434204 -0.8182480131 2.5047789685
C 0.3966956646 -1.2812558125 3.2638783201
S 0.8989689237 0.3850193123 -1.5368919902
C 0.4192814459 -1.3615212166 -1.6262331037
S -0.8649641859 -1.8793884282 -0.4435374063
P -2.117800801 -0.1919681203 -0.5224662642
S -2.5497718394 0.5735751348 -2.2667453987
O -1.3503050775 0.7756397959 0.5090513814
C -1.4295076163 2.2050834715 0.4025340545
C -2.7700249856 2.7198519665 0.8842445819
O -3.4366516855 -0.6566665392 0.2221200575
C -3.4590936539 -1.1883268663 1.5712493622
C -3.5602666196 -2.7001509004 1.5523736457
H 3.7465183274 1.2460747138 -2.0994811554
H 5.4108475503 0.7291134579 -2.4062547253
H 4.0698032512 -0.4006802188 -2.6613913778
H 4.8937597599 0.7881183205 0.0369593658
H 5.2727164293 -0.8773163064 -0.498313155
H 2.3945471906 -1.5902328424 2.4775856473
H 2.0423216341 0.0985739004 2.9328233376
H 0.6791538438 -1.5292471191 4.2817394957
H -0.3482668209 -0.4900387621 3.2818700334
H -0.0272565966 -2.1568180864 2.7797349372
H 1.2824718757 -1.9954241838 -1.4365531853
H 0.0403238296 -1.4964215157 -2.6378373562
H -0.6029674099 2.5730586958 1.0153702725
H -1.2575288936 2.4887105572 -0.6418357503
H -2.9454912684 2.4174932884 1.913431812
H -2.7820724196 3.8032083813 0.8197841227
H -3.5623965637 2.3171364917 0.2533410651
H -2.5634396694 -0.8547761198 2.1003018074
H -4.3451874528 -0.7399907092 2.024273054
H -4.429118186 -3.0056776488 0.9762318976
H -2.6715204673 -3.1377722601 1.1027898583
H -3.660253172 -3.0601748247 2.5715144264
*
