! pbe def2-sv(p) def2/J RI DEFGRID1 loosescf d4 GCP(DFT/SV(P)) printgap
%output
    printlevel normal
end
* xyz 0 1
C 4.062777187 1.6129010852 -1.9728410751
C 4.4366653377 0.8635653849 -0.709547889
O 3.4234620746 -0.0753609243 -0.3239447359
P 1.9837395671 0.3906681367 0.2077794519
S 2.0841520802 1.9583309192 1.3797635402
O 1.487881762 -0.9701855113 0.8476016909
C 1.9345264539 -1.3906625536 2.1539071601
C 0.9007683954 -2.3445033323 2.7164687966
S 0.7561224398 0.5086293307 -1.5031115677
C 0.3778664718 -1.2298236936 -1.7983620933
S -0.8217105844 -2.0062808748 -0.6383605173
P -1.9924546541 -0.4101696272 0.0551748173
S -3.5916720204 -0.9734745838 1.0350255374
O -2.2718071384 0.5587056745 -1.1795417235
C -3.4233148007 0.4039318219 -2.0262843312
C -3.2104455539 -0.6728634289 -3.0717241105
O -0.9437061042 0.4308618838 0.913609355
C -1.3958846821 1.3416649473 1.9365516405
C -2.0169532262 2.5886889954 1.3458178573
H 3.180246696 2.2266046198 -1.7906028823
H 4.8854419838 2.2574120016 -2.2652442136
H 3.8444802268 0.916818239 -2.7783139004
H 4.5927286015 1.5622524696 0.118988435
H 5.3279574634 0.2506528808 -0.8504580789
H 2.9056244459 -1.8772920432 2.0350861054
H 2.0514373363 -0.5042376156 2.7874613029
H 1.2202503316 -2.6809683047 3.697278319
H -0.0624375175 -1.8462843607 2.8064741874
H 0.7846347183 -3.2009623024 2.0578228996
H 1.2815819053 -1.8295286388 -1.722161654
H -0.0392584493 -1.2712003584 -2.8016253499
H -4.2889475537 0.1697621932 -1.3971057344
H -3.5512354518 1.3862470295 -2.4831683883
H -3.0761514365 -1.6411656284 -2.591512198
H -4.0826382846 -0.7193592644 -3.7160202605
H -2.3348492471 -0.4432334918 -3.6729931879
H -2.1101125222 0.8134913919 2.5769192053
H -0.4914578909 1.5772568175 2.5009682765
H -1.3249573181 3.0527514959 0.6468286042
H -2.9379893716 2.3359946546 0.8231635853
H -2.2411418518 3.2869792048 2.1459961866
*
