! pbe def2-sv(p) def2/J RI DEFGRID1 loosescf d4 GCP(DFT/SV(P)) printgap
%output
    printlevel normal
end
* xyz 0 1
C 4.6340028957 -1.2512477404 -1.3737425287
C 4.350958822 -1.3032367848 0.113352774
O 3.5626801137 -0.1929446257 0.5784971488
P 2.1760513627 0.2949020992 -0.0306373484
S 2.2537574645 1.3079755385 -1.7138724379
O 1.6094472986 1.089590625 1.2215782024
C 1.7635989014 2.5118114298 1.3608768985
C 3.2074415256 2.8897205647 1.6118672251
S 1.0236494315 -1.4658739218 -0.0082076054
C -0.0500253663 -1.1979078855 -1.4668072081
S -1.7831774539 -1.550213337 -1.1297160056
P -2.3545674941 0.2229156431 -0.0899340489
S -1.1434289737 1.7393690578 -0.370415472
O -2.6182629923 -0.1686673474 1.4315156959
C -1.5828383254 -0.4748392278 2.3823925839
C -1.4483605681 -1.9745384926 2.5640364899
O -3.8087153682 0.5578006479 -0.580234998
C -5.0157392824 -0.1378036459 -0.1744110865
C -4.9980925508 -1.6019187918 -0.5554567623
H 5.2978035806 -2.0667356157 -1.6421843485
H 3.7073516207 -1.3459908436 -1.9381928062
H 5.0989195095 -0.3050485635 -1.6403957579
H 5.2705206932 -1.2240284905 0.6960819138
H 3.8248740636 -2.2255443631 0.3752607013
H 1.3789862476 2.9937084366 0.4551075575
H 1.1188909425 2.7669244558 2.2031265091
H 3.2771634555 3.9600445294 1.7778942396
H 3.5875176546 2.3578589022 2.4799662742
H 3.8099081821 2.6234289415 0.7438444738
H 0.2491440627 -1.8984035643 -2.2421188755
H 0.0702367458 -0.1630525257 -1.7981470923
H -0.6408863965 -0.0213184194 2.0562629197
H -1.9048603175 0.0070934952 3.3078580264
H -2.4039319218 -2.3985988163 2.8588258372
H -1.1174192991 -2.4478921094 1.6424607399
H -0.7136363814 -2.1706673025 3.3381074005
H -5.1327449934 -0.0124168865 0.9032608967
H -5.8008292787 0.4070283337 -0.7006556606
H -4.8145155563 -1.7158917759 -1.6206639118
H -4.2165049644 -2.1267793855 -0.0094115443
H -5.9587944517 -2.0431316503 -0.3085346524
*
