  20
        -29.03025360
 C         -0.4070307389        0.8187740316       -1.5669905005
 C         -0.0842563204        0.0271802286       -0.2933261593
 O          0.3335971241        0.8537465316        0.7770900908
 C          1.4649152013        1.6772385408        0.5209621880
 O          0.9106172088       -0.8840969140       -0.6406838587
 C          1.2544182830       -1.8444448595        0.3595171537
 O         -1.1743331327       -0.7040592167        0.1902669739
 C         -2.3224903534        0.0464401736        0.5742473949
 H         -0.9678112865        1.7140578284       -1.3177533822
 H          0.5224946551        1.0806718096       -2.0608704013
 H         -0.9886037053        0.1779610435       -2.2223260025
 H          1.8076521705        2.0044704366        1.4993003846
 H          1.1856066030        2.5415092016       -0.0852139972
 H          2.2489132735        1.1073341831        0.0184583247
 H          1.4282418403       -1.3497298260        1.3169338266
 H          2.1644600135       -2.3147848673       -0.0018182000
 H          0.4553899368       -2.5787936450        0.4667570118
 H         -2.8324362722        0.4515351971       -0.3022161353
 H         -2.0430403034        0.8506635569        1.2557311175
 H         -2.9646860065       -0.6688432381        1.0807655181
