  20
        -29.03025360
 C         -0.4070307389        0.8187740316       -1.5669905005
 C         -0.0842563204        0.0271802286       -0.2933261593
 O          0.3335971241        0.8537465316        0.7770900908
 C          1.4649152013        1.6772385408        0.5209621880
 O          0.9106172088       -0.8840969140       -0.6406838587
 C          1.2544182830       -1.8444448595        0.3595171537
 O         -1.1743331327       -0.7040592167        0.1902669739
 C         -2.3224903534        0.0464401736        0.5742473949
 H         -0.9678112865        1.7140578284       -1.3177533822
 H          0.5224946551        1.0806718096       -2.0608704013
 H         -0.9886037053        0.1779610435       -2.2223260025
 H          1.8076521705        2.0044704366        1.4993003846
 H          1.1856066030        2.5415092016       -0.0852139972
 H          2.2489132735        1.1073341831        0.0184583247
 H          1.4282418403       -1.3497298260        1.3169338266
 H          2.1644600135       -2.3147848673       -0.0018182000
 H          0.4553899368       -2.5787936450        0.4667570118
 H         -2.8324362722        0.4515351971       -0.3022161353
 H         -2.0430403034        0.8506635569        1.2557311175
 H         -2.9646860065       -0.6688432381        1.0807655181
  20
        -29.02862019
 C         -0.0305125816        0.2158050212       -1.9475197645
 C         -0.0500944860        0.1390723919       -0.4169667717
 O          0.1941457347        1.4267777869        0.0773201188
 C          1.0970198402        1.5941287330        1.1689158696
 O          0.9167887817       -0.7204130701        0.1220032473
 C          0.8896181284       -2.0614745331       -0.3545930787
 O         -1.3466547865       -0.2932915074       -0.0764774698
 C         -1.6899213291       -0.2511673085        1.3051600541
 H          0.9938932039        0.3414943855       -2.2835056834
 H         -0.4706051194       -0.6817854678       -2.3675050606
 H         -0.6200857187        1.0793840355       -2.2356431408
 H          2.1101907264        1.3176058070        0.8730663183
 H          0.8012427626        1.0046024004        2.0370785569
 H          1.0441755093        2.6559048799        1.3949038860
 H         -0.1331019408       -2.4430506714       -0.3701046660
 H          1.4915675556       -2.6258139235        0.3530812889
 H          1.3269424935       -2.1254749224       -1.3525938121
 H         -0.9683744059       -0.8162985885        1.9008116872
 H         -2.6715314612       -0.7128976484        1.3661798781
 H         -1.7378379408        0.7826019951        1.6538494600
  20
        -29.02788843
 C          0.4447133304        0.4095800389       -1.6967291112
 C          0.1742245737        0.0608306427       -0.2294861192
 O          0.7100825332        0.9908943638        0.6718162822
 C          0.3142832695        2.3485267005        0.4880721226
 O          0.8100240299       -1.1158131968        0.1895972075
 C          0.5348587003       -2.2884710883       -0.5738399920
 O         -1.2223079023       -0.0346040124       -0.1016623625
 C         -1.7049794051       -0.3565169497        1.2018407600
 H          0.0352764499       -0.3690238209       -2.3306289050
 H         -0.0461707910        1.3458071529       -1.9379808956
 H          1.5174341332        0.4939512042       -1.8426941598
 H          0.8990870697        2.8168458257       -0.3061406718
 H          0.5254874678        2.8352599357        1.4369893198
 H         -0.7514942646        2.4155679494        0.2600480534
 H         -0.5247670585       -2.3452418893       -0.8313890231
 H          0.8076678763       -3.1178376656        0.0739987470
 H          1.1439245758       -2.3108079436       -1.4797229335
 H         -1.4000230695        0.4034162766        1.9237314583
 H         -1.3242719387       -1.3274208621        1.5244107878
 H         -2.7863072383       -0.3811806723        1.1034425739
  20
        -29.02732207
 C         -0.4552714474        0.0525808001       -1.7505664207
 C         -0.1158534583       -0.0942700781       -0.2648735182
 O          0.5294693940        1.0959081000        0.1099069337
 C          0.9448670645        1.1745772709        1.4765098889
 O          0.6724229174       -1.2167974573        0.0219179254
 C          1.9107449352       -1.3153770892       -0.6770864928
 O         -1.2336264425       -0.3465270317        0.5423122469
 C         -2.2884763948        0.6101947892        0.4779562054
 H         -0.9561970661       -0.8512480568       -2.0838990923
 H         -1.0983391056        0.9150162998       -1.8863687930
 H          0.4587850644        0.2096397447       -2.3122714843
 H          2.0291802545        1.2844105569        1.5016998517
 H          0.6491838804        0.2700593672        2.0081789088
 H          0.4697146644        2.0456121533        1.9274984267
 H          2.4076726996       -0.3444526379       -0.7239018620
 H          1.7553689885       -1.7073849878       -1.6841913261
 H          2.5078576601       -2.0135349172       -0.0962788809
 H         -2.9160035113        0.4339164713       -0.3979642592
 H         -1.8890755030        1.6259661314        0.4566553648
 H         -2.8668606460        0.4548579919        1.3849531755
  20
        -29.02544009
 C         -0.3885603419        0.0321960394       -1.7952898719
 C         -0.1168355104       -0.0994561127       -0.2924225344
 O          0.4616311150        1.1066992675        0.1205349455
 C          0.8995515874        1.1498875837        1.4806813575
 O          0.6877132503       -1.1977894898        0.0341247049
 C          1.9219618121       -1.3056608996       -0.6709937210
 O         -1.2877539964       -0.3980489178        0.4269839130
 C         -2.2145971419        0.6696799030        0.6237340099
 H          0.5149997204        0.3491340981       -2.3042456020
 H         -0.7255437148       -0.9299543846       -2.1685921000
 H         -1.1605172099        0.7769333364       -1.9558650981
 H          0.7027190940        2.1587264394        1.8364944258
 H          1.9682880749        0.9334752341        1.5326320961
 H          0.3548212626        0.4173121015        2.0769383543
 H          1.7619862276       -1.7035989704       -1.6748235996
 H          2.5183470057       -2.0018132910       -0.0869975038
 H          2.4233985374       -0.3373602249       -0.7285454885
 H         -3.2046451077        0.2248921169        0.5514208558
 H         -2.0926578381        1.4473889018       -0.1291856001
 H         -2.0738863365        1.1068345610        1.6148513010
  20
        -29.02526940
 C         -0.2137080330        0.4353588051       -1.5673791280
 C         -0.0129983540        0.0265395491       -0.0953710691
 O          0.2012359736        1.1357774350        0.7361715846
 C          1.3851246518        1.8900664014        0.4963550560
 O          1.0917132705       -0.8216141985        0.0712676112
 C          1.0152274468       -2.0955151532       -0.5607058362
 O         -1.1256604056       -0.6546032505        0.4200479222
 C         -2.3407671203        0.0836858182        0.5008042785
 H         -0.8038392791        1.3460115957       -1.6081342976
 H          0.7555790009        0.6058719989       -2.0263128985
 H         -0.7325295563       -0.3613883802       -2.0919958306
 H          1.4441307388        2.5845947694        1.3298177896
 H          1.3115780204        2.4395509543       -0.4447407436
 H          2.2584654781        1.2376139200        0.4858762873
 H          1.0861423409       -1.9954702966       -1.6460578466
 H          0.0897130299       -2.6027765823       -0.2874987003
 H          1.8719541613       -2.6449142826       -0.1803269959
 H         -2.7491624500        0.2695008642       -0.4950596080
 H         -2.1814753112        1.0257127423        1.0259351897
 H         -3.0145365341       -0.5535091857        1.0669749381
  20
        -29.02307837
 C         -0.2022058021        0.5912794360       -1.9969972614
 C         -0.0540437475        0.1581818506       -0.5335294031
 O          0.9319226906        0.9810353162        0.0381807091
 C          0.7654330160        1.4476603875        1.3736698155
 O          0.3319989718       -1.1935727024       -0.5443261009
 C          1.2926891270       -1.6545756160        0.4008967713
 O         -1.3077157590        0.3410328111        0.0758592290
 C         -1.7752688033       -0.6207208627        1.0166622151
 H          0.7859906643        0.6629395955       -2.4377893452
 H         -0.7949309578       -0.1520800611       -2.5185737882
 H         -0.6979232355        1.5554120025       -2.0234278941
 H         -0.2171122918        1.9048686916        1.5011577690
 H          1.5439525897        2.1960651149        1.4962353443
 H          0.9046820695        0.6461623910        2.1035239485
 H          0.8753530937       -1.7084958731        1.4095943500
 H          2.1763774874       -1.0144800581        0.3938718599
 H          1.5520937606       -2.6522131323        0.0564132795
 H         -1.2259323111       -0.5655727448        1.9598977328
 H         -1.7086611374       -1.6278284071        0.6018880038
 H         -2.8157360014       -0.3529153540        1.1808192773
