! pbe def2-sv(p) def2/J RI DEFGRID1 loosescf d4 GCP(DFT/SV(P)) printgap
%output
    printlevel normal
end
* xyz 0 1
C 4.1508524751 -1.4648308808 -2.3832663519
C 4.3784788509 -1.6161525435 -0.893210977
O 3.1423217345 -1.638055398 -0.1582774285
P 2.2061050458 -0.3586854768 -0.0220486196
S 3.1820984351 1.3280626506 0.2150846833
O 1.2590738544 -0.8127735052 1.1645059018
C 1.6069738726 -0.6143207782 2.5554648658
C 0.608703316 0.3284309402 3.1971413978
S 0.8476446404 -0.5120136466 -1.6296020334
C 0.2881961371 1.2150114596 -1.6013577054
S -0.5250903969 1.6696601478 -0.0556651501
P -2.2396571866 0.4064991695 -0.2623324217
S -2.8298696142 0.0415827891 -2.0859313179
O -3.321326732 1.1695581147 0.5883597385
C -3.1208167006 1.5717416277 1.9691961813
C -4.1540385488 2.629606115 2.2938543349
O -1.9310992311 -0.8768164843 0.6359756595
C -1.6159357027 -2.1828007376 0.1239730486
C -2.620298483 -3.1803692244 0.6663227146
H 3.7367545075 -0.4804525413 -2.5984218682
H 5.0969895885 -1.5694984349 -2.9044640807
H 3.4556990907 -2.2212626523 -2.7389090412
H 4.9914835019 -0.7930938627 -0.5121198412
H 4.8447979613 -2.5717629315 -0.650384938
H 1.5762510184 -1.6051304396 3.0120404819
H 2.6226798826 -0.2126602196 2.6187366376
H 0.8127374737 0.3977155168 4.2605664748
H 0.6892536351 1.3173154454 2.7507782833
H -0.4010443581 -0.0441517226 3.0448558438
H -0.4075980442 1.3242316054 -2.4327902922
H 1.144811331 1.8801794678 -1.7034766316
H -3.2397709166 0.6857873665 2.5957744975
H -2.1045198065 1.9612847619 2.0745021855
H -5.1535291977 2.2327626878 2.1413437678
H -4.039613836 2.9325125465 3.3295742993
H -4.0192022179 3.4934810718 1.6492993078
H -1.6445265073 -2.1562242334 -0.9705422827
H -0.5998900571 -2.4126655103 0.4534175855
H -2.3594470344 -4.172900788 0.3136482832
H -2.6124707671 -3.1701814042 1.7524334277
H -3.6185976898 -2.9283814363 0.3163565026
*
