! pbe def2-sv(p) def2/J RI DEFGRID1 loosescf d4 GCP(DFT/SV(P)) printgap
%output
    printlevel normal
end
* xyz 0 1
C 3.2411972753 -2.3847470227 -1.7020807424
C 3.6870077901 -0.939380171 -1.6026102791
O 2.5846242147 -0.053333748 -1.2814666164
P 2.0477559857 0.3040184956 0.1550244216
S 0.9792797563 1.9513279636 0.0374420161
O 3.4003453383 0.4470777772 0.9781635287
C 3.5293896564 0.3909354519 2.4113208175
C 2.5684600433 1.3161726961 3.1269291333
S 1.2221873398 -1.4356682016 1.0767906397
C -0.0051604002 -2.0360850461 -0.140214098
S -0.4514969437 -0.8415355102 -1.4256705473
P -1.9670896942 0.2004863404 -0.3805900042
S -2.569955974 1.904689489 -1.130704754
O -1.3782043558 0.1656812593 1.0906178992
C -1.7625752697 1.1288493144 2.0906841528
C -3.2240826853 1.0042911197 2.462005983
O -3.1307623742 -0.8845552451 -0.2208110968
C -4.1940796163 -1.0180089259 -1.1745381695
C -3.7133213816 -1.6110920243 -2.4841000785
H 2.3755745311 -2.4582950466 -2.3562997521
H 4.0530337339 -2.9719887855 -2.120012119
H 2.9919365514 -2.7803509544 -0.7207025336
H 4.0317643499 -0.5650113736 -2.5678632187
H 4.4705872141 -0.8098107287 -0.8544660304
H 3.3733228556 -0.645038296 2.7245792117
H 4.566859163 0.6815093515 2.5864089149
H 2.696426452 2.3396767118 2.7821086666
H 1.5418017888 1.0146348468 2.9221347511
H 2.7477271687 1.2682608547 4.1960062954
H -0.8943810468 -2.3181751529 0.4201307153
H 0.4246279423 -2.890970591 -0.6569652463
H -1.1092372514 0.898664151 2.9342910256
H -1.5309170577 2.1294937242 1.7112469836
H -3.8448613674 1.2631921939 1.6048785783
H -3.4482453865 -0.0140972244 2.7683540108
H -3.4446903212 1.6870823163 3.2763216336
H -4.9157252226 -1.6676626632 -0.6774121277
H -4.6329651841 -0.0290134324 -1.3418535794
H -3.2132604891 -2.5605616518 -2.3126421268
H -4.5629857012 -1.7637504838 -3.1416938378
H -3.0141966856 -0.9268283447 -2.9650551193
*
