! pbe def2-sv(p) def2/J RI DEFGRID1 loosescf d4 GCP(DFT/SV(P)) printgap
%output
    printlevel normal
end
* xyz 0 1
C 2.5737358322 -2.0503329383 -2.1901823741
C 1.7791102639 -0.7630247216 -2.1343322617
O 1.2152987729 -0.5718294482 -0.8182186496
P 1.9349323772 0.323013394 0.2666273226
S 2.7183921067 2.0179069638 -0.3159481413
O 2.9922535112 -0.7128262797 0.8670996922
C 4.1111750817 -0.3114026201 1.6783602468
C 5.3573634356 -1.0070706899 1.165644935
S 0.4460111523 0.4461380705 1.7558138289
C -0.0948215729 -1.2840213233 1.7944667026
S -1.1769044737 -1.787381255 0.4097494784
P -2.0899390819 0.0341750751 -0.1293727175
S -1.1526537884 1.4452918221 -1.143755025
O -2.6637360543 0.4479527641 1.2868789002
C -3.0349305158 1.8017632468 1.6112992066
C -4.2884657991 2.2267273724 0.8761729467
O -3.3938958405 -0.4743937709 -0.8860151296
C -3.4289506564 -0.6932854987 -2.3050961146
C -2.5884050039 -1.8880157598 -2.7077372458
H 2.9331156412 -2.2003404908 -3.203293551
H 3.4220308817 -1.9967685674 -1.5125172834
H 1.9430944655 -2.8870805059 -1.9020181746
H 0.916575876 -0.7884356068 -2.8041940825
H 2.3956517502 0.108018899 -2.3814790894
H 4.2186286843 0.7767382587 1.6216569497
H 3.8856032339 -0.6018186309 2.706694165
H 6.1940178367 -0.7567412381 1.809531744
H 5.2114677332 -2.0835216572 1.1667712358
H 5.5783774252 -0.6780233366 0.1533475785
H -0.6489291976 -1.3944366699 2.7237971218
H 0.7720960023 -1.9411757024 1.765510054
H -3.1817994013 1.7808064457 2.6918567144
H -2.1956271601 2.4614917805 1.3659333063
H -4.0924237476 2.2635751406 -0.1948977576
H -5.0905958955 1.5177441709 1.0627335172
H -4.5879797239 3.2137298482 1.2142890524
H -4.4861846353 -0.8485553655 -2.5236267499
H -3.0738139793 0.2149101619 -2.8042741838
H -2.6936848339 -2.0641763697 -3.7733938204
H -1.5405215125 -1.6906729165 -2.4808390181
H -2.9004340162 -2.7723625124 -2.1583210709
*
