! r2scan-3c def2/J RI DEFGRID2 scfconv6 printgap
%output
    printlevel normal
end
* xyz 0 1
C 1.2330552899 0.5705852527 -4.27374e-05
C 0.2910370708 -0.6119357523 -4.20413e-05
Br -1.5627800993 0.0269522497 7.1369e-06
Cl 2.9193489936 -0.0444403352 1.63267e-05
H 1.1143325905 1.1829317934 -0.893682655
H 1.1143812416 1.1828725655 0.8936346421
H 0.406914309 -1.2232741017 0.8932773238
H 0.4068866127 -1.2232785334 -0.893359116
*
