! pbe def2-sv(p) def2/J RI DEFGRID1 loosescf d4 GCP(DFT/SV(P)) printgap
%output
    printlevel normal
end
* xyz 0 1
C 5.0836527017 -1.0476918731 -2.4884778706
C 4.2651598978 -0.2275746349 -1.503986974
O 2.9026510153 -0.6900371584 -1.4513198627
C 2.6109925434 -1.6832959443 -0.6338286185
O 3.409428829 -2.2530427968 0.073704239
C 1.1361891934 -2.043450787 -0.7001604038
C 0.2690467111 -0.8087169402 -0.4708274884
H 0.4948064754 -0.0436886298 -1.2211959396
C 0.4848819597 -0.1980869534 0.9005860986
O -0.4349560505 0.0407415591 1.6570297333
O 1.7450153996 0.0343111376 1.1445384027
C 2.0958643897 0.7074284206 2.3748334549
C 2.1518943982 2.2090109735 2.1500986953
S -1.4961006454 -1.2439625488 -0.6078407384
P -2.3204238606 0.6684621089 -0.1357104975
S -1.1941234341 2.2638610756 -0.2547569118
O -3.4404161425 0.7859143221 -1.2591072757
C -4.4680296548 -0.2024823108 -1.4466766198
O -3.2621242171 0.5080611323 1.1441974199
C -2.9604237263 0.8282592648 2.5016826151
H 4.6184239325 -1.0276253688 -3.4701322671
H 6.0829740923 -0.6309811207 -2.5578105549
H 5.1533159531 -2.0784067733 -2.1487352696
H 4.187436999 0.8128326919 -1.8203801237
H 4.6910743506 -0.2904377393 -0.4988787644
H 0.9271247155 -2.8080087483 0.0482628763
H 0.9189550177 -2.4457556991 -1.6908601888
H 1.354083277 0.4499598134 3.1349909159
H 3.0718027769 0.3002757722 2.6405874116
H 2.4031080748 2.7023200663 3.0829001556
H 2.9005866493 2.4510383922 1.4013967272
H 1.1862056879 2.5730913273 1.8026691322
H -4.9840250928 0.093292129 -2.3564834693
H -5.1469495785 -0.1967210104 -0.5961024708
H -4.0189901058 -1.1897306145 -1.5617784645
H -2.5006112823 -0.0290961403 2.988829156
H -3.9157618671 1.072826119 2.9611024986
H -2.2834631562 1.6812782405 2.5484106098
*
