! pbe def2-sv(p) def2/J RI DEFGRID1 loosescf d4 GCP(DFT/SV(P)) printgap
%output
    printlevel normal
end
* xyz 0 1
C 4.0982774661 -0.8767287969 -2.7070166116
C 4.3753040665 -0.0749174979 -1.4506280615
O 3.1971115988 0.6773060381 -1.0617970381
P 2.2723937626 0.2992665927 0.1572388974
S 0.8359170534 1.6249818384 0.2792110124
O 3.3272591362 0.2416241025 1.3445615199
C 3.1100873142 -0.4007480626 2.6170059554
C 1.7998419033 -0.0021856863 3.2626828397
S 1.7245356756 -1.7494368213 -0.0724591469
C 0.0638261867 -1.5650792817 -0.7492825359
S -1.1800857347 -1.2249067103 0.5432458026
P -2.3043794763 0.3140377685 -0.4084261509
S -1.7794641966 0.8050021185 -2.2257895311
O -2.3272424043 1.5218719895 0.5974333651
C -2.6596690288 1.3722217533 2.0023170223
C -1.9781698744 2.4896700449 2.7627903968
O -3.8134613974 -0.1968782737 -0.273434798
C -4.4579736975 -1.0357553703 -1.2463638405
C -3.7983116822 -2.3938874231 -1.3750262056
H 5.0231552167 -1.3320420496 -3.0465146505
H 3.3693012607 -1.6589424865 -2.5106308821
H 3.7134150549 -0.2243225469 -3.4863263285
H 5.1401903488 0.6834541602 -1.624689944
H 4.6784369452 -0.7197703422 -0.6234853443
H 3.1500600886 -1.4821716742 2.4608637843
H 3.9642869783 -0.0782208209 3.2147654973
H 0.9608840451 -0.3516932653 2.6611144157
H 1.7336050911 -0.4475638649 4.2499725865
H 1.734474249 1.0800951358 3.3489534723
H -0.1730758985 -2.520843105 -1.2101527322
H 0.0335039748 -0.7515173541 -1.4787059257
H -3.7468927672 1.4215611445 2.0888493362
H -2.312264532 0.3914698731 2.3416012609
H -2.3524914241 3.4525583232 2.4279385874
H -2.1704056344 2.3713913502 3.8239094508
H -0.9070612712 2.4557558324 2.5789806394
H -5.4812650015 -1.117705777 -0.8769826872
H -4.4494565739 -0.5133459051 -2.2079604531
H -3.6965501573 -2.8613491492 -0.3988454554
H -4.4048111727 -3.0247960442 -2.0168034019
H -2.8122018279 -2.2819965874 -1.8239697596
*
