! pbe def2-sv(p) def2/J RI DEFGRID1 loosescf d4 GCP(DFT/SV(P)) printgap
%output
    printlevel normal
end
* xyz 0 1
C 2.5393445135 0.5430829925 -2.5655210585
C 1.6920957614 1.4467486848 -1.6963576743
O 1.1199915311 0.7330481879 -0.5811728571
P 2.0315225955 0.2745704291 0.6445582122
S 3.5135060946 1.4799603849 1.0717886305
O 2.4714186319 -1.1935740865 0.2074795551
C 3.5955983038 -1.8636919678 0.8036139444
C 3.2317663225 -2.4973475341 2.131697175
S 0.6292631221 0.0826258598 2.1926004396
C -0.4103196093 -1.3516943497 1.6907316292
S -0.5131437248 -1.6529266627 -0.0854857692
P -1.7213988401 -0.0291493387 -0.7113167562
S -1.5822569399 0.3605155197 -2.6277184792
O -1.4076685753 1.1100930759 0.3410218834
C -2.3891150651 2.0640513468 0.8067668788
C -2.8516080495 2.9828094838 -0.3037747485
O -3.1943923628 -0.4505194348 -0.2524519118
C -3.9800624253 -1.3781568728 -1.0211432937
C -5.4184930863 -1.2689996981 -0.5569364883
H 2.8641879071 1.0950420326 -3.4418040776
H 3.4135316147 0.2048494023 -2.0112472726
H 1.9583027366 -0.3210577336 -2.8796353851
H 0.8246533955 1.8249315004 -2.2408095361
H 2.2817975546 2.2818756019 -1.3045406836
H 3.8789459463 -2.6147550627 0.064948912
H 4.4066505028 -1.1379466491 0.9278916963
H 2.4112212954 -3.197722395 2.0006924514
H 4.0949928478 -3.0288183592 2.5194532959
H 2.941445712 -1.7290497276 2.8470793414
H -1.3975879611 -1.1513537121 2.1006336683
H 0.0156144481 -2.2548770798 2.1206270059
H -3.2295939263 1.5180585381 1.2387889906
H -1.85641513 2.6091231678 1.5884135276
H -3.5545369639 3.7073403656 0.0952773097
H -2.0043235839 3.5062086707 -0.7408277991
H -3.3392206296 2.4044608532 -1.0879193779
H -3.8775629907 -1.1253869384 -2.0819633484
H -3.5813659904 -2.3834341401 -0.8581239374
H -5.7929005842 -0.2636408454 -0.727822059
H -6.025031898 -1.9745668255 -1.1149213081
H -5.486589201 -1.4965571929 0.5029072475
*
