! pbe def2-sv(p) def2/J RI DEFGRID1 loosescf d4 GCP(DFT/SV(P)) printgap
%output
    printlevel normal
end
* xyz 0 1
C 3.986252381 -4.3223300351 -0.6929523248
C 2.6051790379 -3.6992168858 -0.6575678813
O 2.7589601383 -2.2961342837 -0.3562210642
C 1.6776216914 -1.5752759071 -0.201139122
O 0.5491177103 -2.0205320229 -0.3141434533
C 1.9939345341 -0.1433985928 0.1604704824
C 1.3028648683 0.8894133813 -0.7253805612
H 1.9022636881 1.1812090493 -1.5874352992
C 0.8307233231 2.1150296586 0.0335275775
O 0.2880776381 2.0481262945 1.1165132222
O 1.0186510645 3.2125482059 -0.6573224596
C 0.417426463 4.4340071825 -0.177587609
C -0.9969749829 4.5643707289 -0.7191185307
S -0.2946658152 0.3429769982 -1.4543211004
P -1.3698614666 -0.2308608103 0.2805481213
S -0.7921374495 -0.7611269198 2.088145306
O -2.2943222904 1.0778044432 0.2806437354
C -3.2714801618 1.3000716766 1.3024866051
O -2.413968376 -1.2763799255 -0.3324642112
C -2.3006325518 -2.694909395 -0.2196489068
H 3.8963419356 -5.3785321466 -0.9233518433
H 4.5928902165 -3.8394503903 -1.4528362886
H 4.4723929821 -4.2062099308 0.2709308171
H 1.9716081199 -4.1485631275 0.1131648908
H 2.0939955648 -3.7867240827 -1.6209774307
H 3.0733968458 -0.0035845455 0.1282618731
H 1.6396876441 -0.0030109576 1.1889909512
H 0.4193736339 4.4182231706 0.915756006
H 1.0665621689 5.2249553108 -0.5520254157
H -0.9834457238 4.5667681629 -1.8053630561
H -1.6018551529 3.7245755915 -0.3810826868
H -1.4389205958 5.4876935626 -0.3600206415
H -2.8097720748 1.1960159503 2.2860789791
H -4.0880710634 0.5861460232 1.1990202102
H -3.6279000354 2.3163879168 1.1550809885
H -3.3132021848 -3.0811515394 -0.3079029821
H -1.8688936773 -2.9577856116 0.7475620126
H -1.6652354753 -3.0755609049 -1.0165250143
*
