! pbe def2-sv(p) def2/J RI DEFGRID1 loosescf d4 GCP(DFT/SV(P)) printgap
%output
    printlevel normal
end
* xyz 0 1
C 3.2933104273 1.3143318489 -2.0982744855
C 2.1719512176 0.3495028248 -1.7781310049
O 1.5879227141 0.6620754663 -0.4842980637
P 2.0079089073 -0.0677433535 0.8452242758
S 1.3933196482 0.84845281 2.459323631
O 3.5873237558 -0.1752071024 0.7276815503
C 4.3678464986 -0.7561433288 1.7923350583
C 5.8213131053 -0.4075113868 1.5446708346
S 1.4483902978 -2.1259848769 0.5801868492
C -0.2226915879 -1.9286411538 -0.081829295
S -1.2719957256 -0.851060843 0.957896157
P -2.3629468701 0.0405196498 -0.6096340652
S -1.4351960867 0.4008299009 -2.3014847403
O -3.0830456836 1.2895234955 0.0552941705
C -2.5406834766 2.6200624629 0.0044823914
C -1.2601719673 2.7492129654 0.80136496
O -3.5324931951 -1.0227657276 -0.7083114263
C -4.4018258169 -1.1184020105 -1.8574031383
C -5.3105383739 0.0860615869 -1.9836927972
H 3.6669672453 1.101155248 -3.0948599127
H 2.9256663135 2.3361024113 -2.0642823481
H 4.0999024465 1.2055125173 -1.3782881252
H 2.5294326502 -0.6831607498 -1.7667498543
H 1.3438161538 0.4516745524 -2.4838236581
H 4.0116933027 -0.3506868541 2.7449898446
H 4.2060813308 -1.8376521555 1.7811326259
H 5.9526033106 0.6708596732 1.5510013695
H 6.4297634537 -0.8460016596 2.328578405
H 6.1389441963 -0.7979445599 0.582262912
H -0.6472490394 -2.9297417044 -0.1050231919
H -0.174017898 -1.4961573649 -1.0841468878
H -2.3654058698 2.8830072594 -1.0439476818
H -3.3351743675 3.2424000183 0.4182312896
H -0.9491228746 3.7885235475 0.8275451803
H -1.3995875269 2.3935624805 1.8200448135
H -0.4651073459 2.161230673 0.3412807213
H -3.7799801561 -1.2294386292 -2.7514559592
H -4.9657214539 -2.0346256378 -1.6789866896
H -5.8482389772 0.2499715338 -1.0534484766
H -4.7226696858 0.974520925 -2.2109314709
H -6.0201914779 -0.0815095024 -2.7878888135
*
