! pbe def2-sv(p) def2/J RI DEFGRID1 loosescf d4 GCP(DFT/SV(P)) printgap
%output
    printlevel normal
end
* xyz 0 1
C 4.6580665101 -1.3701821022 -1.4335010875
C 4.2880717994 0.0944825461 -1.3032430212
O 3.4584546422 0.3178600022 -0.14476407
P 1.8916145414 0.5724986861 -0.260827466
S 1.4027342006 1.9897811195 -1.5135356514
O 1.5146323783 0.9064790456 1.227861657
C 2.0207125177 0.1649456144 2.3667161047
C 3.2124199028 0.8714416008 2.9763963593
S 1.1399183998 -1.3662907133 -0.7542338317
C -0.1168157788 -0.92641618 -1.9845004826
S -1.830103327 -1.2725918289 -1.4951471431
P -1.907302059 -0.2997220012 0.4042060998
S -1.0561540595 -1.1673786117 1.9356706035
O -3.4621330086 -0.0164191869 0.5586136692
C -4.5041393388 -0.9858981614 0.3325237919
C -4.3043923895 -2.2637154316 1.1191895409
O -1.3102783425 1.1462046949 0.1796255996
C -1.9762775251 2.1539777125 -0.6260284754
C -2.7453673826 3.1087527463 0.2616301023
H 3.7717878674 -1.9790396423 -1.5937509669
H 5.3293965667 -1.4889483234 -2.2778010136
H 5.1563868099 -1.7094005567 -0.5298114048
H 3.7646245808 0.459334926 -2.1925798647
H 5.1741775041 0.7097919543 -1.1347376325
H 1.1787000189 0.1214068616 3.060303716
H 2.270708377 -0.8502442122 2.0488871334
H 3.5164959255 0.3361239101 3.8703690322
H 4.0394191067 0.8969234539 2.2718973965
H 2.9429920877 1.8902308379 3.2413912846
H 0.0528023652 -1.5454502485 -2.8625062937
H -0.0038014361 0.1350149937 -2.2253222353
H -5.4102511245 -0.4632011766 0.6438421172
H -4.5453007145 -1.1966570174 -0.7398880855
H -5.1577749936 -2.9164561731 0.9665863749
H -3.4024580857 -2.7742889937 0.7836156646
H -4.2005392077 -2.0459430042 2.1796101087
H -1.1691586725 2.6648995278 -1.1559018629
H -2.6349202157 1.6591461837 -1.3441839454
H -3.1888653297 3.8843157384 -0.3548256715
H -3.5284025933 2.5778912449 0.7972673204
H -2.0729096994 3.5641741904 0.9837330956
*
