! pbe def2-sv(p) def2/J RI DEFGRID1 loosescf d4 GCP(DFT/SV(P)) printgap
%output
    printlevel normal
end
* xyz 0 1
C 4.4645566463 0.2455699511 -2.6088288455
C 4.5487685448 0.0431699498 -1.1093334158
O 3.6334644394 0.9380556061 -0.4290345287
P 2.2995137916 0.4562187918 0.2774014878
S 1.4694932931 1.9844643409 1.1606991314
O 2.7194499813 -0.7564237732 1.227836745
C 2.6187024207 -0.7438692003 2.6689951101
C 1.7132313258 -1.8641859397 3.1393003559
S 1.2906197807 -0.5601264524 -1.2825697287
C 0.2269306225 -1.675643744 -0.3172132654
S -0.8950798878 -0.8379286348 0.826747071
P -2.2367796151 0.0507487211 -0.5719336801
S -2.0461942263 -0.6175971688 -2.4037174076
O -2.0422754073 1.6135361019 -0.5225149928
C -2.5933271076 2.5063975963 0.4778385473
C -2.1646910772 2.1608723052 1.8876726339
O -3.656432135 -0.1158994888 0.1260445924
C -4.2478780424 -1.3886668762 0.4512726805
C -4.9599856808 -2.0017300688 -0.7382033514
H 3.4757866291 -0.0235939374 -2.9751018375
H 4.6546183582 1.286856882 -2.8543015882
H 5.2065502042 -0.3797303041 -3.0950511309
H 5.5355142625 0.3134924352 -0.7295406794
H 4.3149731033 -0.9869403967 -0.8314515494
H 3.63795049 -0.8765645125 3.0371153608
H 2.2399505684 0.2329101657 2.9873535432
H 0.6940773034 -1.699291528 2.7949521336
H 2.070634676 -2.8192027169 2.7643371832
H 1.7184503861 -1.883893207 4.2241506777
H 0.8442722656 -2.3394089625 0.2823980161
H -0.3494056025 -2.2233387511 -1.0628068915
H -2.2100208556 3.4820540268 0.1752938044
H -3.6804924596 2.4827884668 0.3801756363
H -2.5313953097 1.1758553833 2.1700250747
H -1.0799853193 2.1719264659 1.9684908485
H -2.5749200262 2.8995234431 2.5689345461
H -3.4688424337 -2.0553952325 0.8319637899
H -4.9512649626 -1.154114545 1.2528826186
H -4.2536063086 -2.2148278682 -1.5372579368
H -5.438373477 -2.9256422996 -0.4297440915
H -5.7131569876 -1.3166843797 -1.1180053247
*
