! pbe def2-sv(p) def2/J RI DEFGRID1 loosescf d4 GCP(DFT/SV(P)) printgap
%output
    printlevel normal
end
* xyz 0 1
C 0.6130904898 1.6947503537 -0.0001012368
C 1.4125305952 0.4012855626 -0.2296521147
H 1.653277424 0.2954520001 -1.292763386
C 0.5486038294 -0.7972283093 0.1933683723
H 0.3572918756 -0.7368680535 1.2768921735
C -0.801868102 -0.7402012071 -0.5399324031
H -0.6176937142 -0.8716267646 -1.6125935335
C -1.4665327233 0.6357023746 -0.3072323548
H -2.3516799972 0.7476555151 -0.9549332968
O -0.6246674164 1.6769844627 -0.6965332415
O -1.836765573 0.7749382307 1.0360965817
O -1.6123889632 -1.7671058833 -0.0149015924
O 1.2354795393 -1.985529443 -0.1089517619
O 2.6499809177 0.4387344873 0.4265004237
H 1.1565071446 2.5531972806 -0.3929363224
H 0.4282786598 1.833670177 1.0722819606
H -2.1344447443 -0.0937507312 1.3575011191
H -2.3300732259 -1.979397414 -0.6278020167
H 0.6685897965 -2.736739202 0.1232076147
H 2.5155344178 0.4390376645 1.3858362975
*
