! pbe def2-sv(p) def2/J RI DEFGRID1 loosescf d4 GCP(DFT/SV(P)) printgap
%output
    printlevel normal
end
* xyz 0 1
C 3.3242310134 2.741360884 1.6715724352
C 2.0440678411 2.0649907397 1.2248643289
O 2.0362533039 0.6712995483 1.6173108207
P 2.4419991565 -0.5138652609 0.6611807737
S 2.4189118379 -2.1887670765 1.66993102
O 3.8179750471 -0.000563471 0.0565311373
C 4.4528147603 -0.5222876747 -1.1256917343
C 4.6505513399 -2.0223686803 -1.0735512553
S 1.1261019292 -0.4288176909 -1.0297743566
C -0.1618480123 -1.4798072105 -0.3267489927
S -1.2659982658 -0.5916000652 0.7941850992
P -2.4684100719 0.2994856607 -0.7389800474
S -2.7638575572 -0.7865755064 -2.3357267011
O -1.7452672263 1.6566747526 -1.0884202616
C -1.4536761163 2.6942313944 -0.1212702622
C -2.5578200805 3.7307686944 -0.0807827639
O -3.7728779868 0.7766125341 0.0335523223
C -4.9220110574 -0.0730954286 0.2048227258
C -4.6296550572 -1.2730171249 1.0817691452
H 3.444921489 2.6318839677 2.7456773874
H 4.1814117945 2.2929328903 1.1768838737
H 3.2750908327 3.7964314276 1.421081139
H 1.9180519309 2.1286303852 0.1400518283
H 1.1754015241 2.4947335306 1.7273211267
H 3.8454081692 -0.2421770788 -1.9908795573
H 5.4086737103 0.0037007364 -1.1573504526
H 5.2155323126 -2.342319127 -1.9431654982
H 5.1877011721 -2.3034251668 -0.1707358852
H 3.6868641536 -2.529945157 -1.0708401129
H 0.3082380998 -2.277256447 0.2520294842
H -0.7433485357 -1.876289934 -1.1605797856
H -1.3093606984 2.230800051 0.8593074275
H -0.516024152 3.130183869 -0.4715659391
H -2.2621709704 4.5365501875 0.5839132169
H -2.7270861361 4.1308013425 -1.0766393803
H -3.4812697716 3.287603221 0.2811628048
H -5.6656572873 0.5838176267 0.6582011375
H -5.261835605 -0.3942962616 -0.7843847147
H -4.1818253026 -0.9581887007 2.0212242945
H -5.555111975 -1.8028060148 1.2834330602
H -3.9425289188 -1.9485588286 0.5741737258
*
