! r2scan-3c def2/J RI DEFGRID2 scfconv6 printgap
%output
    printlevel normal
end
* xyz 0 1
C -1.7438006234 -0.6661398378 2.31589e-05
C -0.4666331349 0.1178989499 -2.46961e-05
O -0.3951575483 1.3301406163 2.40555e-05
O 0.5937401217 -0.6821406601 1.09985e-05
C 1.9044024982 -0.1088852295 2.2618e-06
H -1.5262860109 -1.7284772369 0.0041897232
H -2.3222307541 -0.3987232184 -0.8805743238
H -2.3263631933 -0.3922148769 0.8758442198
H 2.4154046573 -0.4489100627 -0.8987959227
H 2.4217148695 -0.4665286566 0.8881806924
H 1.8322911268 0.9793074957 0.0105905516
*
