! r2scan-3c def2/J RI DEFGRID2 scfconv6 printgap
%output
    printlevel normal
end
%cpcm
    smd true
    smdsolvent "water"
end
* xyz 0 1
C 3.4539234892 -1.5765108233 -2.5753303029
C 2.1486991515 -1.0714758208 -1.995792083
O 2.3828181303 0.0152956515 -1.0680332184
P 2.46243674 -0.1722186682 0.4970929116
S 2.8934400746 1.501946461 1.4082470659
O 3.5194619217 -1.3488370201 0.6543986225
C 4.1943055535 -1.6245766423 1.8960644329
C 3.2458521103 -2.1019510992 2.976321477
S 0.6082226734 -1.078042205 1.038505596
C -0.3084067456 0.465518897 1.2320734634
S -0.6259138048 1.3098271433 -0.3526101322
P -2.6072125597 0.574651974 -0.6520623208
S -3.4494109522 1.1316792196 -2.3287815647
O -3.3901255051 0.8970116211 0.68813628
C -4.1933719654 2.0842216723 0.8122424195
C -3.3421523171 3.3355871407 0.8996171873
O -2.4846096862 -0.9860668015 -0.4081591548
C -1.9202106419 -1.8297386378 -1.4337943943
C -1.775010411 -3.2219140313 -0.8557263194
H 3.996087477 -0.7569372509 -3.0389671372
H 4.0715039671 -2.0083129487 -1.7925954955
H 3.2396910941 -2.3332534607 -3.3235465443
H 1.6133002472 -1.8725636764 -1.4773458707
H 1.5126568657 -0.6362183467 -2.7701278873
H 4.9210473266 -2.393635764 1.6305505117
H 4.7137264442 -0.715526629 2.213781335
H 3.8210251102 -2.4247109222 3.8382199609
H 2.5858898114 -1.2906126892 3.2790474998
H 2.642951141 -2.9306017937 2.6135340221
H 0.2866033194 1.1519253436 1.8352083081
H -1.2545777102 0.2230200568 1.7101298805
H -4.8690569767 2.1399453309 -0.0471289514
H -4.7668612612 1.9202315232 1.7255781503
H -3.9832130136 4.1960042238 1.0625707897
H -2.6302263347 3.2589254768 1.7177914346
H -2.794127711 3.4768453738 -0.0320326642
H -2.5915349083 -1.8140341969 -2.2977342215
H -0.9512766115 -1.4192374347 -1.7379546442
H -2.7445033895 -3.5886571356 -0.5327564763
H -1.3743321835 -3.883631462 -1.6163173972
H -1.1039892245 -3.1994740632 -0.0009512495
*
