! pbe def2-sv(p) def2/J RI DEFGRID1 loosescf d4 GCP(DFT/SV(P)) printgap
%output
    printlevel normal
end
* xyz 0 1
C -0.6412086262 -0.9186747736 0.3959082111
C 0.3992607144 -0.138038464 -0.3765393491
Cl 2.0135090068 -0.7985357839 -0.0070383002
Cl 0.3660959346 1.5926572311 0.0671725166
Cl -2.2731981644 -0.3524010841 -0.0712058713
H -0.579108386 -1.9770421265 0.1455457684
H -0.5357945121 -0.7691945883 1.4695186318
H 0.2552686872 -0.1987586556 -1.4564356277
*
