! r2scan-3c def2/J RI DEFGRID2 scfconv6 printgap
%output
    printlevel normal
end
* xyz 0 1
C 0.6520612779 0.00018506 -0.3881158113
C -0.6528597946 0.0002070692 0.3878290971
Cl -1.5920062012 1.4503562436 -0.0334070034
Cl -1.5913965328 -1.4503078484 -0.0332762161
Cl 1.5922844805 1.4494003501 0.0334569012
Cl 1.5913980588 -1.4495982694 0.0333298599
H 0.4903046634 0.0001628613 -1.4680593564
H -0.4906312165 0.0004237922 1.4678339397
*
