! pbe def2-sv(p) def2/J RI DEFGRID1 loosescf d4 GCP(DFT/SV(P)) printgap
%output
    printlevel normal
end
* xyz 0 1
C 3.3395037576 0.3519999919 -2.718081282
C 1.9388284765 0.6963684988 -2.2594149727
O 1.4069498504 -0.2830347434 -1.347647342
P 2.0190546609 -0.5284606588 0.0928991758
S 2.7148236417 1.0260076061 1.0719297348
O 3.1117256835 -1.6393210686 -0.232035287
C 4.1706229982 -1.9767428416 0.6800572279
C 3.6585277759 -2.6689818979 1.9268035192
S 0.4771669356 -1.6391069304 0.9884298457
C -0.2841594573 -0.3648374213 2.0543863426
S -2.0313207941 -0.1100195139 1.6911645278
P -1.8040090266 0.7646197111 -0.2350752015
S -0.476915203 2.2073912748 -0.2721022897
O -3.2855979168 1.1899472741 -0.6073284717
C -3.946572057 2.2688001636 0.0873047947
C -5.1810178433 2.6432461038 -0.7070166025
O -1.4897577758 -0.3501454214 -1.2987991286
C -2.430274324 -1.3153200899 -1.8387606354
C -2.9723424429 -2.2597832378 -0.7870511204
H 4.0318280289 0.4217839267 -1.8797844406
H 3.3657132725 -0.6593281276 -3.1155992883
H 3.6455359794 1.0546437739 -3.4869140998
H 1.2246147346 0.6939037762 -3.0845559857
H 1.9157651032 1.6745644352 -1.7665399282
H 4.8204007471 -2.6286765671 0.0947116966
H 4.7029811398 -1.0573590931 0.9447205862
H 3.0285642156 -3.5134922402 1.6593105794
H 4.501975813 -3.0176040782 2.5140340926
H 3.0762532288 -1.9706863044 2.5264330922
H 0.2659842884 0.5719981682 1.928714162
H -0.2384187964 -0.7126933571 3.0829929831
H -4.204773232 1.9195180564 1.0903410793
H -3.2484914276 3.1082028383 0.1693796164
H -5.6983036882 3.4499616389 -0.1984026
H -4.8992235203 2.9711142461 -1.7036938415
H -5.8438337392 1.787093341 -0.7901970595
H -3.2349451979 -0.764521451 -2.3283938758
H -1.8317355617 -1.845438192 -2.5814088314
H -2.1560750948 -2.7239261873 -0.2374066069
H -3.6117948073 -1.7273351222 -0.0865149429
H -3.5547162674 -3.0327233666 -1.2790694051
*
