! pbe def2-sv(p) def2/J RI DEFGRID1 loosescf d4 GCP(DFT/SV(P)) printgap
%output
    printlevel normal
end
* xyz 0 1
C 3.2187954505 2.4482378984 0.9128251198
C 1.7376410546 2.1895242973 0.7381883416
O 1.4879772129 0.9234008502 0.0960931118
P 1.7870561437 -0.4557310289 0.8062707993
S 1.6250028679 -0.5125219879 2.756668139
O 3.2490739953 -0.767525663 0.2436972423
C 4.1018933334 -1.7561999121 0.8383076115
C 3.5931037197 -3.1642408365 0.6016026671
S 0.4860847141 -1.7408493883 -0.2721958225
C 0.5345141663 -0.9872878445 -1.9173960124
S -0.3867491424 0.577436493 -2.0914560288
P -2.0431026387 0.179196409 -0.8604462875
S -2.9751979125 -1.5260085727 -1.0498678469
O -3.0291353705 1.3839694784 -1.1583071615
C -2.6681241154 2.7799375902 -1.0072403374
C -2.3509318205 3.4021609751 -2.352186903
O -1.4020336001 0.4812225948 0.5872599468
C -1.9710057848 -0.0955937673 1.775657606
C -3.2908128945 0.554922348 2.1332598336
H 3.6394760701 1.7282577263 1.6137375423
H 3.7313666342 2.3540940336 -0.0407326018
H 3.3648240235 3.4494430482 1.3059067562
H 1.2757989688 2.9139908586 0.0654104685
H 1.2257088575 2.195511561 1.7056007694
H 5.0704260088 -1.5919793236 0.3639660329
H 4.1728590787 -1.5517859733 1.9116077087
H 3.460723848 -3.3492493691 -0.461250254
H 4.3057068719 -3.8767856566 1.0044484804
H 2.6345227934 -3.3023745594 1.1022202198
H 0.0915323279 -1.7287056706 -2.5799646128
H 1.561827762 -0.7656121282 -2.1971418044
H -3.5501754055 3.2409454068 -0.5588422814
H -1.8215035991 2.8565341455 -0.3201068249
H -1.465744201 2.9434871333 -2.7877176739
H -3.1872743466 3.260283939 -3.0308443862
H -2.1741784912 4.4647027641 -2.2176328355
H -2.099320921 -1.1712805575 1.6119202685
H -1.2138495323 0.0626339001 2.5470806404
H -3.1622209292 1.6260278606 2.2667205939
H -4.0141640094 0.376912725 1.3375251722
H -3.6644666289 0.1194828788 3.0545686838
*
