! wb97x-v def2-tzvp def2/J RIJCOSX DEFGRID2 scfconv7 GCP(DFT/TZ) printgap
%output
    printlevel normal
end
* xyz 0 1
C 0.605184655563927 1.72357034508254 -0.05228411471728628
C 1.3972807295075023 0.4393759253751976 -0.26881158708073133
H 1.6305556457444201 0.31917764338058324 -1.3330765493987706
C 0.5765112896622874 -0.757454045285719 0.20011980421927517
H 0.43727868352610166 -0.6910954002630497 1.2908098547592872
C -0.7819781945292991 -0.7454489881094291 -0.4889750495265516
H -0.62426942953105 -0.848035841204262 -1.5726119457301908
C -1.4934198243816152 0.5882126694426578 -0.2679849527657501
H -2.394393662574993 0.6456629403986979 -0.8892613911062065
O -0.6701734941905116 1.6587623167464818 -0.7206624368573518
O -1.82274119342938 0.7052100368125223 1.1013248889886003
O -1.6370096686354436 -1.7884970029708331 -0.015387160005704703
O 1.209034908492806 -1.9990797614424867 -0.13655378769011928
O 2.6606920029531054 0.5039369569446966 0.40513766250091743
H 1.1306430491458648 2.5768755828312973 -0.4863342007306072
H 0.4681083241744551 1.9014970254922423 1.0237807148758895
H -2.456179825673031 1.4306968443210133 1.1886816570747085
H -1.2234602208501222 -2.626777259026467 -0.2607216227071763
H 2.037007459720202 -2.0404543452387536 0.36077577290469365
H 2.4825818468969754 0.6190375736246263 1.3503685931929386
*
