! pbe def2-sv(p) def2/J RI DEFGRID1 loosescf d4 GCP(DFT/SV(P)) printgap
%output
    printlevel normal
end
* xyz 0 1
C 4.423571852 -1.5122850526 -0.7537988917
C 4.6357302387 -0.0141435203 -0.6790932066
O 3.5867332857 0.6591849536 0.0387642531
P 2.081723313 0.7147230651 -0.4843777271
S 1.9044873354 0.8886187085 -2.4263206399
O 1.5346520649 1.9648434751 0.3070830587
C 1.9477688125 2.3769789972 1.6318232595
C 1.5636728271 1.3680558382 2.6933397325
S 1.2071406092 -1.0324795825 0.3640715358
C 0.218927263 -1.6481133471 -1.0333076069
S -1.4877362347 -2.0107467748 -0.5616026169
P -2.0309346567 -0.0794651107 0.1427482535
S -1.3391038588 1.4313794677 -0.8970964546
O -1.6578479387 0.010041837 1.6685453493
C -2.1233479054 -0.9573746719 2.6546922736
C -0.9815098743 -1.8406682085 3.1140242364
O -3.6154754352 -0.1877989342 0.203241545
C -4.4129299338 -0.2133784568 -0.9981252781
C -5.8442627083 0.0992886079 -0.6118029164
H 4.2449477562 -1.922344166 0.2367816902
H 3.5680714679 -1.7323957997 -1.3906129431
H 5.3067554367 -1.9743600084 -1.1830280884
H 4.692402465 0.4144446103 -1.6844062065
H 5.5350298107 0.2382234126 -0.1153009125
H 3.0264122764 2.5460433531 1.6175257233
H 1.4221466243 3.3237853044 1.768020191
H 2.1234622979 0.4439665964 2.5556492938
H 1.7884957872 1.7796258522 3.6724060016
H 0.4993990437 1.150882545 2.6286242842
H 0.6388081041 -2.5905320526 -1.3762688075
H 0.2383074514 -0.8948418831 -1.8261758039
H -2.5133605379 -0.3490379803 3.4718898461
H -2.9313315056 -1.5464800788 2.2175891815
H -0.1716332413 -1.2372229658 3.5131686159
H -1.3472757199 -2.5073927117 3.888344591
H -0.5959576465 -2.4322218555 2.2872839102
H -4.0129386097 0.5286195656 -1.6972544882
H -4.3258171947 -1.2082729178 -1.4430335738
H -5.9011636682 1.085279795 -0.1592396919
H -6.4650548959 0.0770330094 -1.5013654365
H -6.2063982592 -0.6370616423 0.0994369757
*
