! r2scan-3c def2/J RI DEFGRID2 scfconv6 printgap
%output
    printlevel normal
end
%cpcm
    smd true
    smdsolvent "water"
end
* xyz 0 1
C 5.3784803625 -0.3629831915 -0.3924472891
C 4.8392607437 -1.2170530339 -1.5284196895
O 3.5254186943 -1.7179129701 -1.2120354988
C 2.480519735 -0.9759599277 -1.5164135457
O 2.5323471692 0.0986218926 -2.0716467688
C 1.1861496113 -1.6614745949 -1.1142152956
C 0.2126622382 -0.6248903652 -0.573027039
H 0.1616596736 0.2266056041 -1.2662270648
C 0.6161808019 -0.0607679733 0.7738683616
O -0.2052251862 0.2431822451 1.6161455498
O 1.9097474826 0.0610176949 0.9042537709
C 2.4167682997 0.7041536081 2.0953300664
C 2.4321019456 2.2131084239 1.9200981955
S -1.4693739349 -1.3034210919 -0.4035476278
P -2.4572027487 0.4652880061 0.2486246138
S -1.6653088759 2.1832344504 -0.2580649187
O -3.8990397573 0.2401785741 -0.4315882087
C -4.079349446 0.3313047853 -1.8465577975
O -2.8884244583 0.3423820361 1.7619233724
C -3.5821050487 -0.8124775374 2.273791315
H 6.3825504364 -0.0318465456 -0.6360355304
H 4.742419581 0.5078088007 -0.2519054508
H 5.4037095452 -0.9391585748 0.5282134569
H 5.4448351528 -2.1109422661 -1.6783894287
H 4.7778023651 -0.6366029284 -2.4532370554
H 1.3968297889 -2.4393310991 -0.3822188254
H 0.7532433906 -2.1210422124 -2.0050457278
H 1.7855937338 0.4166440398 2.9403303377
H 3.4232617691 0.3026116784 2.2112533605
H 1.4178519745 2.5866189102 1.7881392846
H 2.8664605409 2.6742933159 2.8006324686
H 3.0159221298 2.4854891972 1.0446292641
H -5.1541214582 0.3695534699 -2.0039889097
H -3.6498687523 -0.5449490428 -2.3322451892
H -3.6064336563 1.2384953146 -2.2269585391
H -3.6437779117 -0.6499199924 3.3466532915
H -3.0143352182 -1.7166706115 2.0533293285
H -4.5740439755 -0.8745984911 1.8298120933
*
