! pbe def2-sv(p) def2/J RI DEFGRID1 loosescf d4 GCP(DFT/SV(P)) printgap
%output
    printlevel normal
end
* xyz 0 1
C 4.3156362306 -3.1826568501 -2.3689698655
C 3.0680092536 -3.2105104628 -1.5082201176
O 2.8350296223 -1.8764468274 -1.0154006129
C 1.9575059861 -1.7172036396 -0.0503901495
O 1.3411541003 -2.6199218236 0.4728997764
C 1.7776139336 -0.2520863512 0.3021900181
C 0.9632403618 0.4203913783 -0.8091303251
H 1.5614649009 0.4907672015 -1.7205643915
C 0.4985396756 1.8017608621 -0.3861509403
O -0.6795827933 2.0939412967 -0.3113760005
O 1.4941902012 2.5948707192 -0.1220657702
C 1.2061251708 3.9113764694 0.4033499037
C 1.0670994192 3.856094085 1.9155668524
S -0.514197074 -0.5454098799 -1.2839473198
P -1.8608101095 -0.0795223329 0.2916762791
S -1.2566585348 0.457222545 2.0872844666
O -3.0884371785 0.6981219834 -0.340165582
C -3.4671611561 2.0419692703 -0.0335963034
O -2.6366982716 -1.4837860665 0.3424819694
C -2.040631329 -2.6293613568 0.9547770413
H 4.1803805692 -2.4934255388 -3.1967032374
H 5.1695021224 -2.8618733097 -1.7798147645
H 4.5038058028 -4.1774394122 -2.7586061856
H 3.1744840634 -3.8826988932 -0.6512070093
H 2.1869739347 -3.5165270751 -2.0806774251
H 2.7481222414 0.2377018428 0.3728040502
H 1.251479969 -0.1880542682 1.2566155051
H 2.0610939053 4.515155005 0.1005340572
H 0.2884280795 4.2809267234 -0.060492548
H 1.9868516598 3.4956396744 2.3667718269
H 0.8482089539 4.8491875272 2.2930728719
H 0.2566738129 3.1855261613 2.1973535483
H -4.5548293315 2.0505083456 -0.0182141858
H -3.0826576531 2.7064865655 -0.8049140414
H -3.0695627721 2.3376021665 0.9385670932
H -2.7327489557 -3.4483225768 0.7796332018
H -1.9160915502 -2.4543748269 2.0247578897
H -1.0661151718 -2.8519080339 0.5152759163
*
