! r2scan-3c def2/J RI DEFGRID2 scfconv6 printgap
%output
    printlevel normal
end
%cpcm
    smd true
    smdsolvent "water"
end
* xyz 0 1
C 4.2234823994 -0.8641750873 -2.4079667158
C 4.4506538162 -1.3182973438 -0.9804999771
O 3.2151655202 -1.5171963706 -0.2722305761
P 2.2630070287 -0.3137099686 0.1371244567
S 3.1764378053 1.3196888599 0.7310183757
O 1.3103068045 -1.0059507359 1.1979086035
C 1.5828880035 -0.9478938269 2.6152257009
C 2.8243272429 -1.7328779067 2.9822099937
S 0.922801594 -0.1237642938 -1.4879903258
C 0.2458295171 1.4830860071 -0.986977049
S -0.7872256845 1.3871046107 0.4901084756
P -2.3809799074 0.294330182 -0.4291811764
S -2.7475866125 0.743748325 -2.2955426794
O -3.5514374538 0.430189803 0.6361447546
C -4.0106085624 1.6668148936 1.2152445967
C -4.3880109374 2.6990287939 0.174197172
O -2.0185606428 -1.2354317733 -0.3188295878
C -1.8031060431 -1.9217108006 0.9366968638
C -3.0188201947 -2.7506953791 1.2958639707
H 3.542233083 -1.5417989117 -2.9168574082
H 3.7917555761 0.1359845417 -2.4178256535
H 5.1720987675 -0.8430583388 -2.9347847517
H 5.0478099616 -0.581087611 -0.4339964653
H 4.935986486 -2.2943838324 -0.9406222979
H 1.6876743673 0.1030087075 2.9030522604
H 0.6875934739 -1.3704811698 3.0728518274
H 2.7499197335 -2.7510948737 2.6095913128
H 3.7032925756 -1.2612106567 2.54437196
H 2.9343503244 -1.748200223 4.0619708334
H -0.355481319 1.8391358249 -1.8240459243
H 1.0620711859 2.1680227409 -0.7569935522
H -4.8751742324 1.3658026069 1.8094984515
H -3.2227298409 2.0489970074 1.870315431
H -3.5086185042 2.9999555083 -0.3934503964
H -5.1187247298 2.2897563929 -0.5193493621
H -4.8067991117 3.5708487326 0.6664209893
H -0.9237008077 -2.5465018595 0.7663004772
H -1.5821461326 -1.1825257572 1.7119498865
H -2.8193965538 -3.3014427314 2.2097257774
H -3.8810240184 -2.1053678928 1.4430103431
H -3.2392257473 -3.4503478128 0.49443637
*
