! pbe def2-sv(p) def2/J RI DEFGRID1 loosescf d4 GCP(DFT/SV(P)) printgap
%output
    printlevel normal
end
* xyz 0 1
C 1.1441745237 -3.8222060607 -2.1273306697
C 2.0183182345 -3.6892985299 -0.8901045092
O 1.7958428479 -2.4251291968 -0.2341674714
C 2.4415312411 -1.3667008692 -0.6823064925
O 3.2515526599 -1.3807436952 -1.5811060076
C 2.0142135481 -0.1086417 0.050275364
C 0.9716505357 0.6178445467 -0.7996419203
H 1.3956576683 0.8453960364 -1.7838678666
C 0.4908940718 1.9228191632 -0.1847725578
O -0.6724750804 2.2689698389 -0.2294296977
O 1.4674612062 2.603185254 0.3476364893
C 1.1573119494 3.8692765454 0.9681943659
C 1.1042702354 4.985022735 -0.0617372405
S -0.4917761149 -0.4054638946 -1.1532003632
P -1.6047006716 -0.1218720339 0.6401534641
S -0.6827883658 0.4336161444 2.2771855542
O -2.8947184503 0.7324206651 0.3336202303
C -3.748823266 0.4758807628 -0.7979878276
O -2.270811616 -1.5766265202 0.7763834255
C -1.4864194612 -2.7032166351 1.1819705057
H 1.4242530759 -3.0729081637 -2.8639662554
H 1.2798720883 -4.8090802665 -2.5567721418
H 0.0974370421 -3.6817180492 -1.8712906885
H 3.0765229539 -3.7593283746 -1.1568063023
H 1.7652292856 -4.4357244559 -0.1369921204
H 2.8748866841 0.5482371515 0.1763022898
H 1.5966277845 -0.3698966556 1.0237306516
H 0.2026979018 3.7701225965 1.4928973658
H 1.9670545273 4.0183662192 1.6819893923
H 0.9435638567 5.9299504327 0.4463743264
H 2.0387501193 5.0290723041 -0.6142850159
H 0.285382603 4.8157754104 -0.7573212773
H -4.1828243838 -0.51909549 -0.7167431718
H -3.1762323544 0.5646300456 -1.7212007623
H -4.5174103392 1.2427248349 -0.749137042
H -1.0911222945 -2.5370719905 2.1849502169
H -0.6607905487 -2.8583617603 0.4871406384
H -2.1661733169 -3.5508967141 1.1722741988
*
