  22
  -32.3588915900000       7.607700367664746E-002 !mtd1
 C         -3.2863395526        0.7455025796        0.4349247698
 C         -2.2568754752        1.5195805772       -0.0751682649
 C         -1.0901922647        0.9198107066       -0.5133473332
 C         -0.9390916631       -0.4597796793       -0.4413964999
 C         -1.9719360697       -1.2291136092        0.0749248236
 C         -3.1425361680       -0.6292781492        0.5075866110
 C          0.3444910202       -1.1021107453       -0.9135559710
 N          1.4925460429       -0.4821215501       -0.2998309931
 C          1.8322024835       -0.5540753615        1.0201868352
 C          2.9408038588        0.2276927568        1.1684419967
 N          3.2841491036        0.7806824460       -0.0271941559
 C          2.3935310242        0.3384201891       -0.8780837154
 H         -4.1968993176        1.2138759056        0.7759686603
 H         -2.3628997743        2.5922599903       -0.1329406927
 H         -0.2865557768        1.5256182466       -0.9075911750
 H         -1.8630676996       -2.3019112799        0.1369099933
 H         -3.9409661506       -1.2365480960        0.9060478888
 H          0.3400176130       -2.1681507026       -0.6700679074
 H          0.4432885416       -0.9889569887       -1.9968724089
 H          1.2724950172       -1.1366601419        1.7214190262
 H          3.5145846437        0.4286172949        2.0507677479
 H          2.3796488421        0.5844193004       -1.9211900116
  22
  -32.3588914100000       7.606251428385810E-002 !md2
 C         -3.2854191936        0.7678978153       -0.4271645828
 C         -2.2546626430        1.5149565042        0.1194094067
 C         -1.0910524942        0.8923442711        0.5333315983
 C         -0.9443063048       -0.4831415960        0.4003684787
 C         -1.9783977419       -1.2251747370       -0.1523267237
 C         -3.1458792054       -0.6027667054       -0.5608001437
 C          0.3343402190       -1.1516692611        0.8491047886
 N          1.4901664669       -0.4978560393        0.2876436568
 C          1.8458542124       -0.4903195904       -1.0301230354
 C          2.9576265978        0.2961477777       -1.1170947826
 N          3.2873918475        0.7745233272        0.1140498182
 C          2.3855671896        0.2837056430        0.9255762280
 H         -4.1936930370        1.2540505496       -0.7488606547
 H         -2.3573076102        2.5843558250        0.2247337631
 H         -0.2866476334        1.4774086223        0.9564304073
 H         -1.8727595241       -2.2944861824       -0.2620372000
 H         -3.9453571763       -1.1889951628       -0.9874242621
 H          0.4194198522       -1.1022676823        1.9384297272
 H          0.3329712913       -2.2017963436        0.5439999195
 H          1.2937651846       -1.0279352070       -1.7721357217
 H          3.5426736722        0.5487887579       -1.9784782270
 H          2.3591921009        0.4658297561        1.9814451623
  22
  -32.3588912700000       7.605124666428935E-002 !gc
 C         -3.2836866017        0.7451771976        0.4384199089
 C         -3.1398787614       -0.6296171579        0.5108238192
 C         -1.9703600248       -1.2296049802        0.0754364232
 C         -0.9386823429       -0.4603704818       -0.4433553702
 C         -1.0899318125        0.9192016327       -0.5153792840
 C         -2.2555040010        1.5191144009       -0.0745133152
 C          0.3446628737       -1.1022061913       -0.9166403157
 N          1.4921325816       -0.4825268055       -0.3014332245
 C          1.8256195431       -0.5485844603        1.0205370799
 C          2.9348375993        0.2320280186        1.1700078715
 N          3.2846103798        0.7786160880       -0.0268357460
 C          2.3970470973        0.3338125722       -0.8795665068
 H         -4.1932901776        1.2136814607        0.7818326076
 H         -3.9373548479       -1.2367493844        0.9113917704
 H         -1.8612733617       -2.3023770254        0.1376012181
 H         -0.2870717817        1.5248562384       -0.9114407094
 H         -2.3615419498        2.5918032757       -0.1320474991
 H          0.3401540331       -2.1686456713       -0.6747681271
 H          0.4438695319       -0.9873967036       -1.9997306095
 H          1.2615937829       -1.1269025631        1.7219175709
 H          3.5049409809        0.4364202474        2.0539190436
 H          2.3881642579        0.5747973625       -1.9239190521
  22
  -32.3588911800000       7.604400407582874E-002 !md8
 C         -3.3273878415        0.1676663597        0.6671982222
 C         -3.0222144181        1.1699479998       -0.2374435307
 C         -1.8098519536        1.1565474823       -0.9061592807
 C         -0.8964768450        0.1363324943       -0.6818727683
 C         -1.2096585843       -0.8682956406        0.2257808706
 C         -2.4178395592       -0.8512650389        0.8987684477
 C          0.4309599319        0.1127532244       -1.4034268841
 N          1.5243166385       -0.0439125052       -0.4767590925
 C          1.9321086729        0.8770515077        0.4444535763
 C          2.9433548004        0.2877781708        1.1460471043
 N          3.1600558107       -0.9731369400        0.6807918494
 C          2.2905580672       -1.1370777144       -0.2835102798
 H         -4.2702473582        0.1802677599        1.1922419493
 H         -3.7266806484        1.9672402470       -0.4198223775
 H         -1.5746261466        1.9429309276       -1.6082321055
 H         -0.4997808286       -1.6621857234        0.4105800566
 H         -2.6498470807       -1.6348280922        1.6040717199
 H          0.4622772739       -0.7281848105       -2.1020948360
 H          0.5669123985        1.0413530614       -1.9647344587
 H          1.4810908558        1.8440515911        0.5212117723
 H          3.5295477684        0.6837746493        1.9508285178
 H          2.1975003011       -2.0304167376       -0.8683240107
  22
  -32.3588414700000       7.214726000705621E-002 !gc
 C         -3.2493954448        0.8797625108        0.2668080072
 C         -3.0120398588       -0.3075531014        0.9374457039
 C         -1.8631784088       -1.0351195239        0.6760483475
 C         -0.9466154140       -0.5846183012       -0.2629587379
 C         -1.1903184789        0.6086295533       -0.9323415126
 C         -2.3355829622        1.3375517786       -0.6684755347
 C          0.3238751630       -1.3529310333       -0.5412554702
 N          1.4793614072       -0.5699413534       -0.1736170666
 C          1.8652707015       -0.2597539977        1.0982815667
 C          2.9551341297        0.5520737112        0.9753628470
 N          3.2414359197        0.7512335942       -0.3404673336
 C          2.3354885734        0.0707653730       -0.9954646680
 H         -4.1431459321        1.4487249001        0.4725129576
 H         -3.7201195165       -0.6669939915        1.6685970108
 H         -1.6812100896       -1.9599128369        1.2037536015
 H         -0.4752814839        0.9691490916       -1.6579026676
 H         -2.5154260247        2.2635651809       -1.1931234541
 H          0.3312162794       -2.2867437347        0.0269476776
 H          0.4013836006       -1.5836286475       -1.6067771211
 H          1.3477829038       -0.6316434568        1.9574511897
 H          3.5528556976        1.0037244078        1.7414151705
 H          2.2802986315        0.0110906298       -2.0640784266
  22
  -32.3588201200000       7.053555072262990E-002 !mtd8
 C         -3.2568249343        0.7407583010        0.4796431022
 C         -2.3430829478        1.5020386168       -0.2309717327
 C         -1.1879305562        0.9196329707       -0.7200049758
 C         -0.9347445745       -0.4294956936       -0.5032772502
 C         -1.8513385342       -1.1851810240        0.2134956450
 C         -3.0096592281       -0.6031444206        0.7003221103
 C          0.3478681527       -1.0419696583       -1.0142166241
 N          1.4849295736       -0.4719871628       -0.3309831568
 C          1.8164968963       -0.6728738646        0.9776705074
 C          2.9099710351        0.1081791165        1.2148552259
 N          3.2515596055        0.7865705038        0.0851624283
 C          2.3746070185        0.4190252443       -0.8141052245
 H         -4.1583180863        1.1953467644        0.8610878925
 H         -2.5308568956        2.5507285203       -0.4046399530
 H         -0.4731207972        1.5151278375       -1.2696066628
 H         -1.6619257110       -2.2339046295        0.3899595446
 H         -3.7176088579       -1.1995559218        1.2554626505
 H          0.3403914778       -2.1229409188       -0.8515928024
 H          0.4651290816       -0.8423346553       -2.0821687336
 H          1.2634479983       -1.3344459638        1.6107256313
 H          3.4743374773        0.2266493310        2.1179394635
 H          2.3646817697        0.7697505070       -1.8267202833
  22
  -32.3588156900000       7.020566776344038E-002 !md5
 C         -3.2482464582        0.6087472219       -0.6774099843
 C         -2.3469973847        1.5121985218       -0.1380040993
 C         -1.1995401338        1.0572968295        0.4858176010
 C         -0.9417113920       -0.3052360084        0.5764698697
 C         -1.8457726292       -1.2046081059        0.0298458312
 C         -2.9963708055       -0.7496048363       -0.5918827258
 C          0.3332417970       -0.7841173592        1.2294669875
 N          1.4795832175       -0.3828116557        0.4486843761
 C          1.8279316994       -0.8765552007       -0.7751357231
 C          2.9249026036       -0.1678155824       -1.1705115224
 N          3.2522740255        0.7514949627       -0.2214117396
 C          2.3634812756        0.5971016234        0.7267574266
 H         -4.1437069558        0.9638672475       -1.1641143399
 H         -2.5385077343        2.5725001205       -0.2032007401
 H         -0.4943987928        1.7626286513        0.9016124669
 H         -1.6526438823       -2.2655625202        0.0924485978
 H         -3.6945798763       -1.4570136035       -1.0127814791
 H          0.4375717356       -0.3469191801        2.2254768341
 H          0.3261199419       -1.8737797911        1.3164415307
 H          1.2827536625       -1.6665628126       -1.2473227339
 H          3.5010429716       -0.2574715708       -2.0694713616
 H          2.3406630298        1.1698779025        1.6322346467
  22
  -32.3584944000000       4.997093940309214E-002 !mtd8
 C         -3.2190032662        0.9622316574       -0.0463040584
 C         -2.6835842622        0.5672123794        1.1679654621
 C         -1.5546763928       -0.2327270311        1.2007358505
 C         -0.9523194455       -0.6468930598        0.0203250965
 C         -1.4926087599       -0.2441844627       -1.1939348932
 C         -2.6220584624        0.5545570454       -1.2275099077
 C          0.3094801960       -1.4767892004        0.0537987164
 N          1.4713678095       -0.6168150695        0.0415151165
 C          2.0403634277       -0.0080869367        1.1219828999
 C          3.0517538649        0.7659594563        0.6320138082
 N          3.1104057948        0.6516249730       -0.7231350154
 C          2.1479798181       -0.1767697569       -1.0395225638
 H         -4.0992664691        1.5861936333       -0.0723261365
 H         -3.1451697965        0.8829348759        2.0912042029
 H         -1.1419719372       -0.5396159580        2.1505956335
 H         -1.0283708945       -0.5584268975       -2.1172123746
 H         -3.0361213072        0.8594620896       -2.1765553224
 H          0.3404508762       -2.0858434759        0.9599951776
 H          0.3592848491       -2.1277677892       -0.8216153868
 H          1.6964095794       -0.1756851640        2.1208136231
 H          3.7416278782        1.3929148299        1.1603097957
 H          1.9230810395       -0.4866739101       -2.0400693601
  22
  -32.3584721200000       4.880657529610349E-002 !md1
 C         -3.2672542120        0.9198849908       -0.1175823183
 C         -2.2904392482        1.2320755827        0.8135787623
 C         -1.1401376094        0.4683490250        0.8944476952
 C         -0.9519835682       -0.6123639150        0.0414394184
 C         -1.9321724347       -0.9167604171       -0.8924536434
 C         -3.0867888560       -0.1565476920       -0.9689467866
 C          0.3115476673       -1.4365314665        0.1316404987
 N          1.4866824700       -0.6016066415        0.0807318048
 C          2.2842637127       -0.2389867250        1.1263279222
 C          3.2205508033        0.6107750822        0.6122962263
 N          3.0099466327        0.7827436223       -0.7215463019
 C          1.9641672369        0.0478711243       -1.0018856649
 H         -4.1651939644        1.5154070454       -0.1797107788
 H         -2.4249327900        2.0712859145        1.4790700743
 H         -0.3789241545        0.7172505586        1.6198739854
 H         -1.7943235832       -1.7531805912       -1.5617050884
 H         -3.8438506906       -0.4028457777       -1.6978016269
 H          0.3308941242       -1.9877753330        1.0758850098
 H          0.3479911904       -2.1522132462       -0.6938535675
 H          2.1340165573       -0.6123406586        2.1179285790
 H          4.0296424634        1.1076037964        1.1088525110
 H          1.5279450184       -0.0404611235       -1.9764231990
  22
  -32.3584717800000       4.878901852014011E-002 !mtd7
 C         -3.3071170062       -0.2652457647       -0.7185684464
 C         -2.9573213883        1.0737289746       -0.7476325441
 C         -1.7557744695        1.4898610696       -0.1998184560
 C         -0.8977175566        0.5720430465        0.3890999567
 C         -1.2555866984       -0.7704244756        0.4165547332
 C         -2.4527298201       -1.1872749422       -0.1366429431
 C          0.4166849734        1.0164338502        0.9878969007
 N          1.5178911978        0.2484583712        0.4600780019
 C          2.1899753180       -0.7618394246        1.0833510675
 C          3.0922783575       -1.2343029236        0.1747402699
 N          2.9827688169       -0.5421327010       -0.9923128582
 C          2.0299976992        0.3307731711       -0.7860713236
 H         -4.2416174359       -0.5906945350       -1.1493811648
 H         -3.6184536704        1.7959765152       -1.2018345621
 H         -1.4856370347        2.5351920655       -0.2285517031
 H         -0.5900668875       -1.4931091403        0.8664789994
 H         -2.7194719839       -2.2329877919       -0.1125716200
 H          0.5850459046        2.0745756434        0.7712163648
 H          0.3989821204        0.8778990103        2.0724274145
 H          1.9874162297       -1.0462114601        2.0949869125
 H          3.8115960032       -2.0213370422        0.2807478849
 H          1.6874690614        1.0387620001       -1.5135191389
  22
  -32.3584714700000       4.877301637554197E-002 !mtd12
 C         -3.2818684834        0.7278666820        0.4660755866
 C         -2.2754251347        1.5143592684       -0.0699743235
 C         -1.1100359676        0.9296426921       -0.5313173481
 C         -0.9366902436       -0.4471573911       -0.4571434737
 C         -1.9466688146       -1.2287746661        0.0854563642
 C         -3.1160994620       -0.6443053411        0.5413832595
 C          0.3448514578       -1.0750344843       -0.9540704958
 N          1.4981182275       -0.4597304427       -0.3434097729
 C          2.3496088493        0.4404454515       -0.9137260046
 C          3.2379593990        0.7922886577        0.0610116590
 N          2.9451608736        0.1348024540        1.2163897359
 C          1.8982670123       -0.5993001372        0.9381289922
 H         -4.1913934178        1.1843676226        0.8254907899
 H         -2.3985413461        2.5851181126       -0.1296245974
 H         -0.3256267849        1.5466190160       -0.9456052164
 H         -1.8205381105       -2.2994924337        0.1500754160
 H         -3.8962755257       -1.2614555548        0.9602919664
 H          0.3489614837       -2.1437374612       -0.7243304388
 H          0.4288406165       -0.9472061984       -2.0367364527
 H          2.2655287640        0.7395882993       -1.9378152468
 H          4.0659900586        1.4703223007        0.0099734266
 H          1.4063129026       -1.2449047914        1.6373059460
  22
  -32.3584713200000       4.876527528686979E-002 !gc
 C         -3.2802662431        0.7219459638        0.4695245344
 C         -2.9416975900        1.0149097890       -0.8402584140
 C         -1.7628258878        0.5275825459       -1.3786583499
 C         -0.9168354592       -0.2635573087       -0.6146648281
 C         -1.2632774424       -0.5552148635        0.6991374642
 C         -2.4375829342       -0.0631240832        1.2392001199
 C          0.3746885004       -0.7961105408       -1.1905428394
 N          1.5007077953       -0.4361090958       -0.3633586925
 C          2.1826924443       -1.2461682587        0.4965480510
 C          3.1102590999       -0.4539187609        1.1088812616
 N          3.0072627212        0.8231931417        0.6489573721
 C          2.0327409705        0.7965434805       -0.2239261953
 H         -4.1970822469        1.1049897733        0.8908704150
 H         -3.5938424830        1.6278794933       -1.4435943094
 H         -1.5012467317        0.7622757486       -2.3999403968
 H         -0.6063937164       -1.1642074955        1.3034777569
 H         -2.6958045310       -0.2934657350        2.2616944971
 H          0.3362843456       -1.8871699697       -1.2502523451
 H          0.5283727616       -0.3935342253       -2.1951634005
 H          1.9684802852       -2.2903319476        0.5919528422
 H          3.8438136247       -0.7147273002        1.8450493089
 H          1.6882164059        1.6479965569       -0.7754430410
  22
  -32.3584428900000       4.732004585912159E-002 !gc
 C         -3.2356083075        0.9448548734       -0.1502596454
 C         -2.4144525094        1.0705065607        0.9582442687
 C         -1.2796119202        0.2881058400        1.0720139072
 C         -0.9531523657       -0.6265934831        0.0781861453
 C         -1.7768808131       -0.7432323539       -1.0323092720
 C         -2.9156293251        0.0363577794       -1.1443970594
 C          0.3063734853       -1.4519552539        0.1989780129
 N          1.4761268144       -0.6098696888        0.1037145229
 C          2.2464120086       -0.1541977017        1.1330240635
 C          3.1844475169        0.6631559064        0.5719062071
 N          3.0013167788        0.7247972986       -0.7756352199
 C          1.9697739333       -0.0431946620       -1.0173969114
 H         -4.1217718628        1.5545751917       -0.2386256429
 H         -2.6589791100        1.7785122402        1.7355080244
 H         -0.6393889085        0.3906450651        1.9360570485
 H         -1.5300392723       -1.4487898713       -1.8120230382
 H         -3.5513221500       -0.0637917041       -2.0109598589
 H          0.3350124635       -1.9607265863        1.1654695671
 H          0.3440847930       -2.1978669939       -0.5986967101
 H          2.0802047039       -0.4492752445        2.1480487155
 H          3.9775663704        1.2076674227        1.0434620365
 H          1.5571540535       -0.2151250318       -1.9909535649
  22
  -32.3584279900000       4.657979694177068E-002 !gc
 C         -3.2512371509        0.7507679631        0.4760878168
 C         -2.7623037792        1.2231392175       -0.7297255399
 C         -1.6000716260        0.6927036050       -1.2633885826
 C         -0.9212894327       -0.3195389980       -0.5998889822
 C         -1.4168330170       -0.7880428306        0.6107141817
 C         -2.5754574897       -0.2554789668        1.1465305482
 C          0.3648312246       -0.8832847878       -1.1572373534
 N          1.4910110317       -0.4594410250       -0.3576072378
 C          2.0997637609       -1.1632363630        0.6397234588
 C          3.0531038017       -0.3367703125        1.1600041645
 N          3.0365034417        0.8592008103        0.5102154656
 C          2.0879133855        0.7506240644       -0.3846647496
 H         -4.1560879430        1.1654990949        0.8933318076
 H         -3.2846348466        2.0080728221       -1.2551988574
 H         -1.2213819653        1.0663988695       -2.2034168073
 H         -0.8910295483       -1.5708701177        1.1374517485
 H         -2.9519480029       -0.6263598943        2.0877447307
 H          0.3356978467       -1.9753770645       -1.1489399146
 H          0.5140826011       -0.5363456085       -2.1823995535
 H          1.8257162712       -2.1686274533        0.8822452470
 H          3.7494021970       -0.5208940018        1.9533052775
 H          1.8114705047        1.5251208873       -1.0712344188
  22
  -32.3584298200000       4.667008595203143E-002 !gc
 C         -3.2429448963       -0.0064416440       -0.9029071854
 C         -2.7470313650        1.2649220453       -0.6706745256
 C         -1.5898416597        1.4341063099        0.0703569976
 C         -0.9230892014        0.3343224393        0.5915094632
 C         -1.4255283961       -0.9390209565        0.3534528678
 C         -2.5794180961       -1.1089169658       -0.3900970747
 C          0.3596262201        0.5051942007        1.3709792318
 N          1.4879557048        0.0594351110        0.5861673162
 C          2.1118494012       -1.1512350668        0.6601753559
 C          3.0594770944       -1.1503394581       -0.3220441996
 N          3.0248699816        0.0292580040       -1.0004941839
 C          2.0708584447        0.7232059585       -0.4341601972
 H         -4.1437631131       -0.1387440759       -1.4824490883
 H         -3.2599305130        2.1269985997       -1.0692408491
 H         -1.2056716834        2.4280529033        0.2470561263
 H         -0.9091248053       -1.8009734263        0.7499076696
 H         -2.9616762149       -2.1023747790       -0.5692549152
 H          0.5061754528        1.5567884195        1.6286953576
 H          0.3297043425       -0.0880842616        2.2877500607
 H          1.8505776658       -1.8875724813        1.3911781105
 H          3.7635973740       -1.9140986489       -0.5845908247
 H          1.7803648703        1.7100524289       -0.7331216611
  22
  -32.3584010600000       4.527113885222706E-002 !gc
 C         -3.3373053677        0.6445918944        0.4728437461
 C         -3.1365538052        0.6976181597       -0.8962681150
 C         -1.9305805947        0.2883297632       -1.4372413534
 C         -0.9153941196       -0.1853498782       -0.6162572962
 C         -1.1248670518       -0.2407552726        0.7553036609
 C         -2.3283432289        0.1761257854        1.2969525807
 C          0.3885091405       -0.6520590423       -1.2244560023
 N          1.5200943936       -0.3860547898       -0.3749915914
 C          2.1689180221       -1.2758165505        0.4308497607
 C          3.1257296883       -0.5611208376        1.0916583162
 N          3.0727676918        0.7461057906        0.7151139543
 C          2.0996191918        0.8135682792       -0.1569841434
 H         -4.2756750720        0.9683954887        0.8963602180
 H         -3.9188452971        1.0627732465       -1.5440759693
 H         -1.7766963653        0.3349077369       -2.5051720022
 H         -0.3428174610       -0.6040712279        1.4065870476
 H         -2.4770639966        0.1330905562        2.3652886698
 H          0.3432713141       -1.7316064489       -1.3988394295
 H          0.5421398264       -0.1534590774       -2.1855135838
 H          1.9108777527       -2.3139211451        0.4617049836
 H          3.8472631917       -0.8971531496        1.8089978917
 H          1.7892457600        1.7113422477       -0.6523823378
  22
  -32.3582938200000       4.041451098277345E-002 !md1
 C         -3.3657718053        0.8148112194        0.1439559030
 C         -2.1689636160        1.5084255622        0.1437215172
 C         -0.9677317673        0.8296120736        0.0167663334
 C         -0.9541292227       -0.5511528200       -0.1097314433
 C         -2.1606773760       -1.2429324988       -0.1079328178
 C         -3.3587657353       -0.5651158966        0.0175058582
 C          0.3295272615       -1.3407979523       -0.2600433426
 N          1.5186538833       -0.5476294768       -0.1145970041
 C          2.1645103593        0.1394698947       -1.1018460201
 C          3.1963673966        0.7946330206       -0.4947669183
 N          3.1933875443        0.5311337260        0.8411142292
 C          2.1749574783       -0.2679522143        1.0315263803
 H         -4.3000571279        1.3458515544        0.2429323622
 H         -2.1648474174        2.5834550586        0.2422888181
 H         -0.0419152182        1.3864411467        0.0196634459
 H         -2.1565823000       -2.3184590649       -0.2056176950
 H         -4.2885729475       -1.1132293246        0.0180989434
 H          0.3505073952       -2.1346498905        0.4926405163
 H          0.3458800398       -1.8084427741       -1.2498259427
 H          1.8480419192        0.1038023770       -2.1232324191
 H          3.9399483264        1.4341881252       -0.9262149908
 H          1.8879675129       -0.6678277635        1.9831205900
  22
  -32.3571074400000       1.151634933657824E-002 !mtd10
 C         -3.3210837696        0.8071689785        0.2154358766
 C         -2.6777231299        0.3175413555        1.3399651118
 C         -1.5012566265       -0.3994574813        1.2092197178
 C         -0.9576966420       -0.6345865626       -0.0476314924
 C         -1.6090418429       -0.1413870538       -1.1714426566
 C         -2.7853563570        0.5758198195       -1.0406021992
 C          0.3400670722       -1.3828606104       -0.1877788188
 N          1.4788356435       -0.4860898676       -0.1095774026
 C          1.4723682490        0.8746246991       -0.0167032178
 C          2.7828529566        1.2573001401        0.0170799543
 N          3.5900952113        0.1646094804       -0.0538982452
 C          2.7766995407       -0.8577942477       -0.1286850371
 H         -4.2378587585        1.3673629823        0.3176125301
 H         -3.0921028624        0.4951642088        2.3206642172
 H         -0.9990767574       -0.7766880138        2.0879111154
 H         -1.1907352026       -0.3170913625       -2.1516920741
 H         -3.2833801227        0.9552637839       -1.9197745862
 H          0.4358222046       -2.1268671172        0.6094668988
 H          0.3737356798       -1.9011031918       -1.1519524270
 H          0.5687785570        1.4456775711        0.0190110412
 H          3.1960849995        2.2432690943        0.0877118483
 H          3.0926420414       -1.8792127433       -0.1977361589
