! pbe def2-sv(p) def2/J RI DEFGRID1 loosescf d4 GCP(DFT/SV(P)) printgap
%output
    printlevel normal
end
* xyz 0 1
C 2.9594984383 -1.070935721 -2.8648224299
C 1.6562792551 -0.9743753374 -2.100235963
O 1.6956175479 0.1308753434 -1.1618256753
P 1.9993196963 -0.0589303279 0.3695540806
S 2.2555106175 1.6078210488 1.3575350037
O 3.2734430936 -1.0102242266 0.3300700116
C 3.9483362637 -1.3954821047 1.5450534406
C 5.2975837328 -1.970790416 1.1654266061
S 0.539078617 -1.3811454941 1.18439616
C -0.5092798056 -0.2062367491 2.0949813998
S -2.2257858653 -0.1979079782 1.5343544486
P -1.8987812501 0.6044319522 -0.4092034373
S -0.739427502 2.1768529258 -0.5306485753
O -3.3700313061 0.7900010259 -0.9788801065
C -4.1392859157 1.9880863907 -0.7716989475
C -4.4939531565 2.2011279526 0.6853479632
O -1.3524542086 -0.6058702477 -1.2629636417
C -2.0570463194 -1.8707903194 -1.3894324621
C -2.8255597962 -1.9255160744 -2.6928753649
H 3.1661228817 -0.1286760501 -3.3651178462
H 3.7778655927 -1.2939360059 -2.1855312393
H 2.8781126177 -1.8613244887 -3.6044607279
H 1.4473894755 -1.8960606796 -1.5500186065
H 0.8182900475 -0.7388562952 -2.7590318145
H 4.0511716744 -0.509332667 2.1799150384
H 3.328199827 -2.1348566575 2.0591136529
H 5.88977779 -1.2225621196 0.6459474559
H 5.8187421316 -2.276061863 2.0666631601
H 5.166114946 -2.8318492619 0.5166221251
H -0.0738865858 0.792234035 1.9926888384
H -0.534038102 -0.5167967761 3.1363784116
H -3.564062123 2.8361384524 -1.1555578245
H -5.0288075185 1.8337336455 -1.3841432974
H -3.5961029949 2.4315712349 1.2570682891
H -5.1838734225 3.034893492 0.7671929668
H -4.9546802916 1.3074724338 1.0988519474
H -1.2716079327 -2.6282282724 -1.352592171
H -2.7232905325 -1.9922130915 -0.5312071459
H -2.1552993877 -1.763420158 -3.5324615944
H -3.2881649937 -2.9028767739 -2.7875738982
H -3.5968775015 -1.1603182225 -2.7069191624
*
