! pbe def2-sv(p) def2/J RI DEFGRID1 loosescf d4 GCP(DFT/SV(P)) printgap
%output
    printlevel normal
end
* xyz 0 1
C 4.3238644701 0.0922229858 -1.7918265878
C 4.4280367509 0.1484770101 -0.2811836091
O 3.4527005038 -0.6856391653 0.3610278755
P 1.8902232414 -0.3596162434 0.3282357391
S 1.5169063616 1.5670600356 0.4559277421
O 1.3760672885 -1.3359459954 1.4636526103
C 2.043264042 -1.5250888944 2.7299427589
C 2.0185652675 -0.2718134964 3.5811701179
S 1.1466725053 -1.3771834759 -1.3725481718
C 0.2133127942 -0.056426474 -2.195754473
S -1.5833841912 -0.3600850023 -2.2708716229
P -2.1747745681 0.3262187307 -0.3812550521
S -4.0783929977 0.2225587581 0.0621392802
O -1.5407613853 1.7758812489 -0.4442409174
C -1.8034892726 2.7643681894 0.5770359959
C -2.8271527157 3.7642672395 0.0812464399
O -1.233331103 -0.4119261882 0.695041266
C -1.722020266 -1.5640560513 1.4041965656
C -1.7516488891 -2.7967368811 0.5240148162
H 4.3317309994 -0.9397532229 -2.1332040154
H 3.3987738275 0.5655497455 -2.1183921509
H 5.1626535595 0.6241094562 -2.2293428857
H 4.294154572 1.1755257508 0.0743349269
H 5.382805255 -0.2446451383 0.0707379621
H 1.4831082028 -2.3376023614 3.1964709217
H 3.0686814004 -1.8472485544 2.5376897777
H 0.9963355441 0.073961448 3.7192437549
H 2.4595727232 -0.4828285947 4.5503436627
H 2.5866539469 0.5221185965 3.0977261111
H 0.5326971587 -0.0213458077 -3.2335999068
H 0.4002188418 0.8897489304 -1.6827624123
H -2.1497168141 2.2615619003 1.4845202756
H -0.8350773585 3.2321602636 0.7684281335
H -2.4869380551 4.2144717794 -0.8468730132
H -3.778623426 3.2667458882 -0.0954043402
H -2.9625956103 4.5376621565 0.8303402206
H -1.0310217428 -1.679600746 2.2389918124
H -2.7258852786 -1.3350755772 1.7772973827
H -0.7611507432 -3.006136776 0.1268973945
H -2.0921377698 -3.645325476 1.1084958378
H -2.440273151 -2.6400953691 -0.3065810413
*
