! pbe def2-sv(p) def2/J RI DEFGRID1 loosescf d4 GCP(DFT/SV(P)) printgap
%output
    printlevel normal
end
* xyz 0 1
C 1.4992998899 -2.8774226525 1.2285922753
C 1.9339962484 -1.5515211475 1.8197206918
O 2.9838800239 -0.9263992154 1.0631724238
P 2.8136179566 -0.257509522 -0.3706083768
S 2.6233489884 -1.474347683 -1.8947756328
O 4.1503388563 0.556453444 -0.5133962464
C 4.492569522 1.8020648119 0.1446481568
C 4.2906628019 1.7661840332 1.6437257629
S 1.2572201638 1.1941881487 -0.1456937267
C -0.0009599001 0.4111427961 -1.1802036407
S -1.0621820087 -0.7343866105 -0.2641074176
P -2.8454991847 0.4442433411 -0.1339596085
S -2.7886183427 2.2163479829 -0.9571854706
O -3.2601825203 0.4128931553 1.4047385136
C -2.7920412733 1.377135976 2.3631508533
C -1.3251093058 1.1904833464 2.6938381549
O -3.9606155038 -0.469764056 -0.7681638452
C -4.1813047608 -1.8459164269 -0.3572850027
C -3.8260976234 -2.7849602252 -1.4923708593
H 2.3578507789 -3.5308565668 1.0974606623
H 0.7845895036 -3.3495618408 1.8945423997
H 1.0278142784 -2.7255615676 0.259255342
H 2.3743299996 -1.6842671833 2.8095566492
H 1.0874236977 -0.860961498 1.8809864281
H 5.5432771708 1.9369574204 -0.117041027
H 3.8936011645 2.5953897534 -0.309729832
H 4.6768126259 2.6865168796 2.0712248132
H 3.2314759583 1.6863295498 1.8803943117
H 4.8183927828 0.9196733537 2.0749012863
H 0.5030320795 -0.1592229662 -1.9630534329
H -0.6200807063 1.2096553385 -1.5937872304
H -2.9753186501 2.3798345022 1.9645724522
H -3.4253170165 1.2036395042 3.234581761
H -0.7093701348 1.451805052 1.8338679208
H -1.0598749075 1.8429733402 3.5193661365
H -1.1331130487 0.1579436918 2.9751621223
H -3.5858447544 -2.0547180008 0.5338030971
H -5.242780516 -1.9021632206 -0.1116923754
H -4.0809305529 -3.800233183 -1.205784741
H -4.3812303494 -2.5143850124 -2.3862488712
H -2.7621679666 -2.7349923213 -1.7112584697
*
