! r2scan-3c def2/J RI DEFGRID2 scfconv6 printgap
%output
    printlevel normal
end
* xyz 0 1
C 4.7447051259 -1.6832191171 0.930680718
C 4.3084494039 -2.4925959339 -0.279767874
O 2.8872268995 -2.3633103689 -0.4762380636
C 2.4464107335 -1.4445336262 -1.3082120659
O 3.1461823742 -0.7414405516 -2.0054586953
C 0.9274932983 -1.4094780119 -1.3408204989
C 0.4819596471 0.0464075076 -1.3996388384
H 0.9532865156 0.5235897743 -2.2675584929
C 0.9661003386 0.8065761562 -0.1780280137
O 1.9763088763 0.5016682463 0.4133485149
O 0.2163463764 1.8530435984 0.0930846359
C 0.5957745384 2.7053517123 1.1932091345
C 0.0406661482 4.0906494644 0.9289516767
S -1.3078065621 0.2428078854 -1.683144391
P -2.0392488557 0.10837517 0.2780269522
S -0.9281993057 -0.7305605226 1.6767743063
O -2.5378853593 1.586206151 0.5661549717
C -3.2602539175 1.8787095713 1.7757981166
O -3.45007294 -0.6265530233 0.0992014143
C -3.5464386946 -2.0464232725 -0.0571249795
H 4.236822883 -2.0409251302 1.8218845265
H 5.817747475 -1.773676314 1.0620535095
H 4.4847034927 -0.6367489943 0.7850999283
H 4.4755088534 -3.5596588067 -0.1293000917
H 4.8165066619 -2.1476814397 -1.184919615
H 0.5469604082 -1.9122203046 -0.4510032364
H 0.5845119695 -1.9314607409 -2.2349826355
H 0.179305508 2.2657856227 2.1055263198
H 1.6870015009 2.6989893072 1.2697349159
H -1.0294708354 4.0282554848 0.7546707552
H 0.2332962826 4.7225804498 1.7892014025
H 0.5122916551 4.5234730875 0.0515292447
H -2.7392482737 1.4586593663 2.6381076413
H -4.264993891 1.4635409013 1.7146618005
H -3.2961057126 2.9630676042 1.8422663111
H -4.5865451684 -2.2945497988 0.138487601
H -2.8943302632 -2.547208117 0.6608822083
H -3.2701382432 -2.3267163162 -1.0728304343
*
