! pbe def2-sv(p) def2/J RI DEFGRID1 loosescf d4 GCP(DFT/SV(P)) printgap
%output
    printlevel normal
end
* xyz 0 1
C 4.0477448915 -2.1437550155 -1.4442038617
C 4.2443186644 -1.0158124657 -0.4512789277
O 2.992467491 -0.4840016822 0.0142752435
P 2.053734344 0.3959966802 -0.9332789726
S 3.0038501021 1.5821262303 -2.1655775228
O 1.0997533996 1.1064265947 0.1166742213
C 1.441730272 2.3685007297 0.7197736579
C 2.5295226643 2.2192654127 1.7612710823
S 0.6807950007 -0.9546773395 -1.7677610197
C 0.2045043358 -1.891962908 -0.2610115664
S -1.5818373228 -1.9530660884 -0.0460548058
P -1.8400965711 -0.0713991822 0.9244982836
S -0.6815463147 0.1547677108 2.4863535592
O -3.3970254068 -0.0554354289 1.2332132447
C -3.959954898 -0.9147612988 2.2460221389
C -5.3484767702 -0.4028267608 2.5705549604
O -1.6962276726 1.0910131071 -0.1314352436
C -2.6922760923 1.4763402767 -1.1118819849
C -2.978171106 0.3859017862 -2.1228185811
H 3.4399838264 -2.9333147641 -1.0099939205
H 3.5544513842 -1.7678471345 -2.3403882254
H 5.0159917425 -2.5485719792 -1.7206997293
H 4.8165674082 -0.2011921677 -0.9069170263
H 4.7408653978 -1.3575638736 0.4578480275
H 1.7476221181 3.0569575598 -0.0748618819
H 0.5042833675 2.7054808753 1.1660025127
H 2.6833359213 3.1730676218 2.2558794867
H 2.234465004 1.4748184914 2.497511294
H 3.4596109215 1.9076301445 1.2890761313
H 0.6595351078 -1.4244522854 0.6124789367
H 0.5354541223 -2.9185795166 -0.3901638443
H -3.9898359499 -1.9327340643 1.8492778804
H -3.306747425 -0.8914846143 3.1243718095
H -5.7943751302 -1.041745504 3.3255572989
H -5.293452346 0.6138776027 2.9496716441
H -5.9681245058 -0.4143782785 1.6787181749
H -3.5991451729 1.7650014784 -0.5780107596
H -2.2434589013 2.3511725072 -1.5858633815
H -2.0551074684 0.0422812336 -2.5858691232
H -3.4702384441 -0.4592729207 -1.6465429073
H -3.6311761475 0.785784638 -2.8924985462
*
