! pbe def2-sv(p) def2/J RI DEFGRID1 loosescf d4 GCP(DFT/SV(P)) printgap
%output
    printlevel normal
end
* xyz 0 1
C 3.0289730733 -3.8397562244 1.2527501996
C 2.9590774107 -3.2285477618 -0.137415622
O 2.9155521936 -1.7894047826 -0.0659457707
C 1.75238463 -1.2017452543 0.1025178177
O 0.6928663673 -1.7954084818 0.1729992754
C 1.8935989113 0.3008885359 0.1970226728
C 0.587980149 0.9826626279 -0.171814315
H 0.2281153014 0.6376639974 -1.1514614233
C 0.6325833246 2.5027874256 -0.1922575667
O -0.2721588941 3.170158234 -0.6404189717
O 1.7296385812 2.9773310847 0.3493758283
C 1.8964767275 4.409455939 0.4153089053
C 2.5281722099 4.9426025447 -0.8602697403
S -0.7507376337 0.5628609219 1.0107677984
P -1.7895450897 -0.8905745343 -0.1561593911
S -1.2967568461 -1.1081520529 -2.0382020497
O -1.9140906956 -2.2323241716 0.6596709701
C -2.3413115611 -2.2571255724 2.0355851379
O -3.3055392961 -0.3600706399 0.003687711
C -3.7288181284 0.8410286907 -0.6407541405
H 2.1183216281 -3.6186820414 1.804726754
H 3.1335924531 -4.9160840227 1.1650842791
H 3.8808244257 -3.4389049784 1.7949646495
H 2.0715817997 -3.5778819843 -0.6734266816
H 3.8592395656 -3.4425753012 -0.7134201184
H 2.6954811776 0.6213451645 -0.4682512726
H 2.1771314282 0.556336422 1.2207843372
H 0.917533717 4.8660417515 0.5834121742
H 2.5454784944 4.5650128966 1.2768692032
H 2.6906402206 6.010465283 -0.7588944332
H 3.4798114944 4.4518201331 -1.0433789943
H 1.8684669392 4.765934958 -1.7068000353
H -2.244726423 -3.2958802444 2.3407122662
H -3.3749067374 -1.9233378173 2.1090599881
H -1.6961996188 -1.6158642719 2.6364106832
H -4.7894004773 0.9342736884 -0.4233091172
H -3.5625672672 0.7673004236 -1.7168468095
H -3.1791626826 1.698031976 -0.2471840065
*
