! pbe def2-sv(p) def2/J RI DEFGRID1 loosescf d4 GCP(DFT/SV(P)) printgap
%output
    printlevel normal
end
* xyz 0 1
C 2.3126513759 0.7524909564 -2.9407727296
C 1.8816722923 -0.5366245752 -2.2714523573
O 2.6752162793 -0.8163927002 -1.1075254676
P 2.4127089939 -0.235392251 0.3537916822
S 2.5643954659 1.6882071594 0.6644012685
O 3.5313362608 -0.9902280225 1.163819396
C 3.6600464564 -2.435613136 1.2096585301
C 3.2700279065 -2.9475362809 2.5819824789
S 0.5703722686 -1.1511376042 0.89798395
C -0.2263522136 0.2329442788 1.7789727036
S -2.0075990142 0.220693659 1.5422359217
P -2.0129811183 0.5766391387 -0.5646246908
S -0.6901777011 1.8917263514 -1.1701314818
O -3.5474476673 0.8426745126 -0.8722711742
C -4.4028445694 1.7322290812 -0.1310107582
C -3.8614200276 3.144786004 -0.0670387094
O -1.7657962499 -0.7721742559 -1.3435699494
C -2.67466286 -1.8974228398 -1.4451334393
C -2.708318812 -2.7266983034 -0.1771080889
H 2.1038978011 1.6019470338 -2.2924008564
H 3.3774337099 0.726890757 -3.1554846848
H 1.756515245 0.8794872521 -3.8640396807
H 2.0509696578 -1.3971530302 -2.9217720627
H 0.8240083597 -0.4914830946 -1.9925785612
H 3.0398552866 -2.8772211184 0.4268166861
H 4.7123489092 -2.6289725021 0.9963483859
H 3.4771055667 -4.0116181607 2.6347239476
H 3.8446930481 -2.4315069615 3.3460131214
H 2.2111270083 -2.7820377957 2.7639744423
H 0.2001675845 1.1673431172 1.4005401942
H -0.0570786369 0.1274285644 2.8476841545
H -5.3475554037 1.6922315649 -0.6762153214
H -4.5335443619 1.3222864044 0.8740614997
H -3.6732458834 3.5256434207 -1.0682446345
H -4.5804267925 3.785820265 0.4326910942
H -2.9241059535 3.1643490384 0.4876686255
H -3.6657109671 -1.5199302354 -1.701564172
H -2.2664658772 -2.4672095995 -2.2814834357
H -1.6959789887 -2.9686195031 0.1392434841
H -3.205851905 -2.1880931309 0.6255256689
H -3.250858784 -3.646007746 -0.3741010849
*
