! wb97x-v def2-tzvp def2/J RIJCOSX DEFGRID2 scfconv7 GCP(DFT/TZ) printgap
%output
    printlevel normal
end
* xyz 0 1
C -1.2526951326519236 -0.3025559256526452 0.023102016945224402
C -0.006164611135519793 0.563564126155987 0.033451150439868696
N 1.2115765257769966 -0.2743507374844725 0.02555273324897873
H -2.1543862069555404 0.3174812909870038 0.047342707103266185
H -1.29250789387592 -0.9171011666591979 -0.8837019926096837
H -1.2736024846887846 -0.9725159069059676 0.8890378548184401
H 0.008430226088963239 1.176702483813898 0.9416196551001749
H -0.043774426315161846 1.2606775472446126 -0.818667440348178
H 1.2181050198597363 -0.7999368624018395 -0.8452723925548896
H 2.0202188404435097 0.33793242603890816 -0.03366912483647615
*
