! r2scan-3c def2/J RI DEFGRID2 scfconv6 printgap
%output
    printlevel normal
end
%cpcm
    smd true
    smdsolvent "water"
end
* xyz 0 1
C 5.7390688599 -0.1992792365 0.1730049096
C 4.3934264554 -0.6055214314 -0.3932790993
O 3.3759268815 0.1366112562 0.305899412
P 1.8932150978 0.2402708175 -0.2594799976
S 1.7871412303 0.7451695134 -2.1551857473
O 1.2401015862 1.2031808508 0.8131936756
C 1.2424393838 2.6376846202 0.6554649567
C 2.643533237 3.2080141758 0.6340734505
S 1.103700226 -1.6451012811 0.2598525134
C -0.0573860615 -1.9172710068 -1.1198452205
S -1.7563812835 -2.2125150243 -0.569220248
P -2.1862514836 -0.3025952401 0.1819402302
S -1.5863471247 1.2615641274 -0.8506652833
O -1.5903603926 -0.4457072654 1.6408639214
C -1.6320796034 0.6437766462 2.5900237672
C -0.5402016231 0.4131009492 3.6138337639
O -3.7486001435 -0.3080415731 0.4765904173
C -4.7225490167 0.0965602657 -0.5020246054
C -4.7942941266 -0.8716100774 -1.6646349615
H 6.5190216311 -0.7693586955 -0.3207332611
H 5.9111099013 0.860596201 0.0085741211
H 5.7661798762 -0.3995381141 1.2400436196
H 4.2023953712 -1.6717625516 -0.2435145996
H 4.3188451797 -0.3758920081 -1.4616900373
H 0.7023618391 2.882962506 -0.2653123446
H 0.6738708509 2.9936088666 1.5161594233
H 3.167571084 2.8666959004 -0.2579730651
H 2.5876857201 4.2919861951 0.6166221472
H 3.1938548333 2.8839705245 1.5135479276
H 0.2442362283 -2.821237837 -1.6427279748
H -0.0190324949 -1.0489583233 -1.7840729851
H -1.486286987 1.5840025996 2.0465371375
H -2.6234190801 0.6450527469 3.0492887603
H 0.4324223421 0.4194879759 3.1281620006
H -0.5771588796 1.2001167846 4.3601345911
H -0.6840473032 -0.550213577 4.0943308666
H -5.6578742789 0.1270957767 0.0582057147
H -4.4628719006 1.1009636139 -0.8517832359
H -4.9392349172 -1.8863494799 -1.3028993515
H -5.6204110854 -0.595695062 -2.3120842629
H -3.8687515095 -0.8332177389 -2.2379881792
*
