! pbe def2-sv(p) def2/J RI DEFGRID1 loosescf d4 GCP(DFT/SV(P)) printgap
%output
    printlevel normal
end
* xyz 0 1
C 4.5262214577 0.9362831279 -2.032531039
C 4.1071572404 -0.0744960511 -0.9855909064
O 3.090832966 0.5497974326 -0.1522385534
P 2.1337811085 -0.2767864935 0.7841857993
S 1.1978543285 0.8255375782 2.1008773144
O 3.122601293 -1.3483270073 1.4213200038
C 2.7822923992 -2.1077532345 2.5943092365
C 1.6907562383 -3.1194423246 2.3123017352
S 0.9555494641 -1.4700996727 -0.5575460795
C 0.6238645533 -0.2440856228 -1.8581987571
S -0.018819017 1.3366764546 -1.2412012455
P -1.982534036 0.686713646 -0.7775634626
S -2.6848060893 -0.7974764674 -1.8477392979
O -2.6621100917 2.100756627 -0.9620697271
C -4.0717465206 2.253668088 -1.2317090463
C -4.919876355 1.935584352 -0.0182224514
O -2.0500896184 0.4748137629 0.7963882697
C -1.9923881535 -0.8034995909 1.4546989545
C -3.3744101464 -1.2215741167 1.9155124033
H 5.2849943976 0.4941951458 -2.6702556558
H 3.6756578428 1.2356999725 -2.639699258
H 4.9310902825 1.8218260273 -1.5513822083
H 4.9410911716 -0.3497557906 -0.3377815354
H 3.6917002424 -0.9815561601 -1.4331884858
H 3.7194220977 -2.5906369568 2.874123782
H 2.4716994185 -1.4104344867 3.3789034974
H 1.5248800219 -3.7270837307 3.1958313238
H 0.7649322306 -2.6036679656 2.0590752921
H 1.9714146201 -3.758847853 1.4795355194
H -0.1135566829 -0.7086504488 -2.5152024582
H 1.5381655441 -0.0150806906 -2.3981962178
H -4.1664421771 3.2991060381 -1.5290268699
H -4.3347543899 1.6026063079 -2.0717779777
H -5.9560045527 2.1807207222 -0.2299900185
H -4.8469512877 0.8759075627 0.2189848271
H -4.5782218774 2.5116154917 0.8379971824
H -1.5770301056 -1.5498686937 0.7701267632
H -1.3130195324 -0.6555265604 2.2975884437
H -3.2915656376 -2.1347249095 2.4958263118
H -3.8154404255 -0.4424179218 2.5307296108
H -4.0134654919 -1.4077221115 1.0547045064
*
