! r2scan-3c def2/J RI DEFGRID2 scfconv6 printgap
%output
    printlevel normal
end
%cpcm
    smd true
    smdsolvent "water"
end
* xyz 0 1
C 5.6983792586 1.0826287511 -0.7087988351
C 4.3571540647 0.5249069157 -1.1398085079
O 3.5428216458 0.3702581499 0.039473488
P 1.9699219107 0.1952412889 -0.0642110786
S 1.0810627375 1.5761760362 -1.1342080567
O 1.5048473396 0.2232407018 1.4368031532
C 1.7005037869 -0.8170406176 2.430786723
C 3.1462496514 -1.2365133583 2.5755605125
S 1.7551884247 -1.7850673653 -0.805368386
C 0.0001468538 -1.7126390022 -1.2177559858
S -1.0649381516 -1.7031988047 0.2678974998
P -2.1220787753 0.093984724 -0.0009205559
S -2.3897245324 0.735663579 -1.8374207095
O -1.3431967653 1.0297381613 1.013116832
C -1.4812999893 2.4629629815 1.0121209529
C -2.8766485324 2.904911491 1.396991894
O -3.4686458259 -0.1696372127 0.8043773859
C -4.6491716488 -0.7094616817 0.1863436843
C -4.4717000494 -2.1567084649 -0.2258473884
H 6.1753213183 0.4035996143 -0.0083432744
H 6.3308274196 1.2019112078 -1.5822616558
H 5.563873134 2.0480886651 -0.2292035654
H 4.4635752188 -0.4560121794 -1.6104472517
H 3.8444387053 1.2005578725 -1.8329212986
H 1.3188190108 -0.3552480941 3.3425708497
H 1.0687088491 -1.6679019198 2.1597227725
H 3.7744134466 -0.3683850144 2.7568664076
H 3.2286659871 -1.9222886352 3.4132552774
H 3.4880004017 -1.7386717872 1.6729795622
H -0.216176685 -2.6153183268 -1.7827722636
H -0.2099865709 -0.8153727135 -1.8066283195
H -0.7320027275 2.7932423088 1.7336304741
H -1.211267691 2.8344236345 0.0175318481
H -3.1678331981 2.4484217632 2.3394605706
H -2.8937221197 3.9859633221 1.4944052561
H -3.5857722608 2.6084077094 0.624956892
H -5.4177373914 -0.5996061605 0.9525549645
H -4.8960794689 -0.0916908308 -0.6831829736
H -4.1077844723 -2.7468189797 0.6114832651
H -5.4249336137 -2.5527258051 -0.5610478281
H -3.7550475696 -2.2246422229 -1.0432200194
*
