! wb97x-v def2-tzvp def2/J RIJCOSX DEFGRID2 scfconv7 GCP(DFT/TZ) printgap
%output
    printlevel normal
end
%cpcm
    smd true
    smdsolvent "water"
end
* xyz 0 1
C -0.6868569751310802 -0.6284295140976247 -0.2983450448854324
C 0.6845833450312427 -0.5681883405486905 0.3266390740634257
O 1.4603115368000419 0.5401574063085944 -0.1589120983631242
O -1.421882817883566 0.5343407915478354 0.12707337344205485
H -1.18960458602216 -1.5493020976620544 0.03157822098426173
H -0.6001767012858555 -0.647592511621579 -1.3932938260389403
H 1.2358375425432608 -1.4761838683428117 0.06458176566859532
H 0.595486288262205 -0.5221695473985396 1.4217677423905566
H 0.991100569789226 1.3453011701329436 0.09512526280021079
H -2.240101591861248 0.5651188373236585 -0.383530218875875
*
