! pbe def2-sv(p) def2/J RI DEFGRID1 loosescf d4 GCP(DFT/SV(P)) printgap
%output
    printlevel normal
end
* xyz 0 1
C 5.8944726066 -0.1744565112 -1.3628146992
C 4.4794046936 -0.1728356245 -1.9075688211
O 3.6447308191 -1.0470069004 -1.1213201067
P 2.630626943 -0.480188377 -0.049286885
S 3.2517563114 1.090227277 0.9545687695
O 2.4490024365 -1.8476776588 0.7241142074
C 1.3295015642 -2.1572826251 1.5706265055
C 1.3015932244 -1.307917894 2.8269819597
S 0.822534431 -0.1848974886 -1.1554077338
C 0.2039107112 1.3149912562 -0.3384092445
S -1.0376007741 0.9686422349 0.9255698267
P -2.5599224068 0.2444531046 -0.3897400475
S -2.437269617 0.8979730912 -2.2337931449
O -3.933776707 0.5538294254 0.3466421952
C -4.6363672463 1.7971511045 0.1724164995
C -3.8776358671 2.9739095053 0.7505330414
O -2.4809921241 -1.3317593289 -0.3067739268
C -3.1405066334 -2.1538662308 0.6891989052
C -2.6947237858 -1.8384808205 2.1014384755
H 6.5281406406 0.4266488944 -2.0068435339
H 5.9067630534 0.244904264 -0.3590031842
H 6.2762371904 -1.1905426496 -1.3237916257
H 4.4397713037 -0.5748541958 -2.9215781068
H 4.0632059996 0.8394199282 -1.8995015075
H 0.4101442586 -2.0336728505 0.9872981009
H 1.4718736602 -3.2136369879 1.8065748081
H 2.2718452374 -1.3393774437 3.3164037097
H 1.067531982 -0.2717939427 2.5861880022
H 0.5470765456 -1.688514378 3.5082953539
H -0.2399165539 1.9324154333 -1.1180830179
H 1.0347439846 1.8239411854 0.1564140564
H -4.8168309969 1.944623052 -0.8968412375
H -5.5822321745 1.6340897446 0.6909086319
H -2.97636724 3.1586283227 0.1679451733
H -4.5057019483 3.8580900263 0.7111189016
H -3.5954915634 2.7768667535 1.7816026527
H -4.2179466504 -2.0154907761 0.5819442051
H -2.8655567234 -3.1679548366 0.3947630442
H -1.6208296225 -1.9661787743 2.2030216038
H -2.9503852151 -0.8122720287 2.3569435021
H -3.2001703774 -2.5113492934 2.7871654208
*
