! pbe def2-sv(p) def2/J RI DEFGRID1 loosescf d4 GCP(DFT/SV(P)) printgap
%output
    printlevel normal
end
* xyz 0 1
C 5.3571006581 -0.9050221657 0.7619180468
C 4.2220539365 -1.5514287588 -0.0048960683
O 3.629007472 -0.6179209353 -0.9434465278
P 2.3715223206 0.2742816671 -0.6245567307
S 1.8876490104 1.3630569305 -2.1747518518
O 2.8252911469 1.0550515901 0.6829352019
C 2.0464353868 2.1097585202 1.2757247901
C 2.9919389916 3.0217678929 2.0300660954
S 0.902966345 -1.0907415535 0.094854352
C -0.1546725983 -1.1556004863 -1.3910132858
S -1.8569574263 -1.5738811642 -0.9922425885
P -2.4505778504 0.1918101811 0.0620077579
S -1.2019820785 1.6981124534 -0.0643315873
O -2.8107562111 -0.2621206547 1.5435013269
C -1.827847463 -0.5162074709 2.5632514364
C -1.5028442583 -1.9942857537 2.6550213813
O -3.8667673558 0.5685304874 -0.50830591
C -5.1091310063 -0.1059352336 -0.1819647579
C -5.1044196972 -1.5619957421 -0.5937614795
H 6.0942726595 -0.5074199872 0.0697542673
H 4.982571525 -0.0925631099 1.3782585082
H 5.8256705771 -1.6512062271 1.3959839131
H 3.4421943635 -1.9160626488 0.6701128693
H 4.5809076912 -2.3687247295 -0.6328866989
H 1.5101180313 2.6475544923 0.4867739963
H 1.3107755175 1.6539173676 1.9434407605
H 3.516087912 2.4612734889 2.7986513001
H 3.7181987993 3.4518065066 1.3458737393
H 2.4197910281 3.8195231071 2.4918853511
H 0.2018065978 -1.9430023642 -2.0508709709
H -0.1078916043 -0.1783759213 -1.8789157069
H -0.9329303939 0.0768617191 2.3495138008
H -2.2905353537 -0.1544560992 3.4834828466
H -2.4151775955 -2.5675604874 2.7916693005
H -0.9996524144 -2.3337387002 1.7523464207
H -0.845440562 -2.1583719598 3.5023326682
H -5.2790511639 -0.0014871273 0.8909154171
H -5.8534204521 0.4683222842 -0.7355873482
H -4.8812508415 -1.6581162206 -1.653150649
H -4.3539745965 -2.1125599686 -0.0291463589
H -6.0820891543 -1.9893548777 -0.393607945
*
