! pbe def2-sv(p) def2/J RI DEFGRID1 loosescf d4 GCP(DFT/SV(P)) printgap
%output
    printlevel normal
end
* xyz 0 1
C 3.3568319957 -1.5896690012 1.5875926159
C 3.02174665 -2.2935309389 0.283088407
O 2.7167470896 -1.3212948326 -0.7354064375
C 1.473473061 -1.115286449 -1.0895633044
O 0.5143397389 -1.7274779152 -0.6496597345
C 1.3471046694 -0.0291871957 -2.1328373622
C 0.2475331515 0.9563758512 -1.751815083
H 0.1269100982 1.7019764618 -2.544302646
C 0.4912086776 1.7047973926 -0.4495126446
O -0.405402239 2.2521000281 0.1561894925
O 1.7537434576 1.6960485163 -0.1048872594
C 2.1352580132 2.3760186662 1.1085182215
C 2.2455615921 3.8755191925 0.8899718335
S -1.4134621415 0.1969412576 -1.6523068789
P -1.5609221758 -0.5563118748 0.3412349562
S -0.2751835337 -0.3375844161 1.8035189719
O -2.9976843812 0.0634495227 0.7446436489
C -3.1970580075 1.4290779467 1.1019774445
O -2.0062167169 -2.0665989934 0.210176145
C -3.004589597 -2.5178669278 -0.7215050478
H 2.4852005418 -1.0520003163 1.9577587513
H 3.6518908783 -2.3268442708 2.3267158733
H 4.1708390975 -0.8875921615 1.4333056508
H 2.1617294909 -2.9574783425 0.4068122327
H 3.8796786479 -2.8474448884 -0.1010710006
H 1.0812127961 -0.4971144993 -3.0826108024
H 2.3018770919 0.4868029327 -2.2252720929
H 1.3981594479 2.137780597 1.8811016816
H 3.0985667915 1.9350762718 1.3635951733
H 1.272028408 4.2914752876 0.6413554106
H 2.6025926334 4.3398533807 1.803016493
H 2.942065533 4.0865405986 0.083211592
H -4.2061879584 1.4818764466 1.5025921609
H -3.0919437705 2.0666210967 0.2241805703
H -2.4674192944 1.7334209764 1.8537756269
H -3.9439729269 -1.9955321764 -0.546259721
H -3.1097564122 -3.5818012958 -0.5250361825
H -2.6630324741 -2.3471216983 -1.7424574372
*
