! pbe def2-sv(p) def2/J RI DEFGRID1 loosescf d4 GCP(DFT/SV(P)) printgap
%output
    printlevel normal
end
* xyz 0 1
C 1.9098301287 -1.0611789995 -2.7032119713
C 3.2613789685 -0.7293460171 -2.1045204749
O 3.3087768158 -0.9928478863 -0.691529594
P 2.5461226131 -0.1006123296 0.3802894164
S 2.6073156467 1.8340626846 0.0997173452
O 3.2488634163 -0.4878551035 1.7393597751
C 3.3783109384 -1.8433132416 2.23846699
C 4.6793974791 -2.4731737238 1.7858839744
S 0.6238894876 -0.9948842138 0.528543788
C -0.153453043 0.3866233351 1.436021509
S -1.9424089923 0.2312901914 1.4660430604
P -2.3610752872 0.7245901875 -0.5783379959
S -0.8788869925 1.4528655791 -1.6252024329
O -3.5744141328 1.7197101002 -0.5002060003
C -4.7836954527 1.4424119996 0.2588917414
C -4.8753696135 2.3825256699 1.4435798671
O -3.0618763627 -0.5652048031 -1.1953213525
C -2.3516532293 -1.7292606859 -1.6584022835
C -2.3009886911 -2.8027260618 -0.588619388
H 1.5999602413 -2.0594085229 -2.403621531
H 1.1641836155 -0.3388987721 -2.3722575256
H 1.9759423136 -1.0126556071 -3.7853270605
H 3.509480503 0.323485873 -2.2714555538
H 4.0481616284 -1.3654105778 -2.5131911346
H 3.3498192726 -1.7301983506 3.3236858435
H 2.5171554644 -2.4273965613 1.9010541552
H 4.7802891961 -3.4483933922 2.2520192322
H 4.6891826446 -2.5887327587 0.705763514
H 5.5177711605 -1.8470459065 2.0788048236
H 0.1331198114 1.3173539653 0.9398287303
H 0.1768096066 0.37294823 2.4723028072
H -5.6007054287 1.6069670356 -0.4450313255
H -4.7756369497 0.398687386 0.5778119701
H -4.0664479577 2.1910414592 2.1441909007
H -4.8122261938 3.4132125097 1.105665958
H -5.8247749409 2.2274250185 1.9459665269
H -2.9207270436 -2.0639051616 -2.5277320398
H -1.347247177 -1.4312937189 -1.9744770892
H -3.303622602 -3.0185183861 -0.2308486064
H -1.8702783902 -3.7030555386 -1.0138571016
H -1.6849581764 -2.4827567944 0.2488593684
*
