  17
  -19.2463782700000       0.463171356081572      !md4
 C         -1.4681037959       -0.0006769287        0.2355391911
 C         -0.7292198221        1.2504020278       -0.2371441171
 C          0.7287653980        1.1993804699        0.2350853572
 N          1.4284104476        0.0006882962       -0.1987110073
 C          0.7299525326       -1.1987077586        0.2350022776
 C         -0.7280354321       -1.2510959098       -0.2370616542
 H         -2.4917661655       -0.0011697295       -0.1448542282
 H         -1.5135951360       -0.0006272169        1.3272249132
 H         -0.7533028322        1.2977670166       -1.3292856670
 H         -1.2123927722        2.1477554667        0.1516146824
 H          1.2803365652        2.0671001175       -0.1337517985
 H          0.7581044970        1.2145274425        1.3291427109
 H          1.4806037607        0.0007412027       -1.2140258904
 H          1.2823517124       -2.0658476029       -0.1340497721
 H          0.7594217946       -1.2140437264        1.3290414131
 H         -0.7521876428       -1.2985580342       -1.3292222233
 H         -1.2103192206       -2.1488909785        0.1518241376
  17
  -19.2463782000000       0.463137048563351      !md6
 C         -1.4634026219       -0.0006433818       -0.2639576284
 C         -0.7337264896        1.2505385381        0.2225538401
 C          0.7333076646        1.1993470813       -0.2207025999
 N          1.4242279648        0.0007149676        0.2267591900
 C          0.7345365429       -1.1987545752       -0.2205394622
 C         -0.7325019909       -1.2511906447        0.2224256202
 H         -1.4884617499       -0.0006571600       -1.3562864658
 H         -2.4941024138       -0.0012662799        0.0972626032
 H         -1.2090904443        2.1477498930       -0.1760972322
 H         -0.7793187338        1.2982442125        1.3139679730
 H          0.7839526440        1.2144727452       -1.3139664213
 H          1.2775951846        2.0670769564        0.1588003631
 H          1.4568329621        0.0007879644        1.2428212209
 H          0.7858951471       -1.2142940970       -1.3136731660
 H          1.2795481616       -2.0657325485        0.1596206104
 H         -1.2068846499       -2.1486905169       -0.1764747131
 H         -0.7784350433       -1.2992496733        1.3137794072
  17
  -19.2439823500000       3.669890435525768E-002 !mtd2
 C         -1.4655387160       -0.0008396984       -0.2411304407
 C         -0.7255628790        1.2445573929        0.2386363681
 C          0.7256189008        1.1996394589       -0.2343190245
 N          1.3623961834        0.0004771263        0.2840797226
 C          0.7265071529       -1.1987698207       -0.2349403335
 C         -0.7241697555       -1.2451939588        0.2392118434
 H         -1.5079369429       -0.0011771483       -1.3335813551
 H         -2.4890614899       -0.0011606483        0.1367074517
 H         -1.2068847139        2.1472311532       -0.1402802214
 H         -0.7362440043        1.2747666907        1.3286562034
 H          0.7448516093        1.2328504491       -1.3404363684
 H          1.2715914312        2.0675623613        0.1425058270
 H          2.3471027385        0.0010138373        0.0395982839
 H          0.7448179156       -1.2308455156       -1.3410568965
 H          1.2735317366       -2.0665132992        0.1404929575
 H         -1.2047896859       -2.1485903882       -0.1385602714
 H         -0.7339886783       -1.2745389986        1.3292876122
  17
  -19.2439820900000       3.668880875038699E-002 !md3
 C         -1.4704244893       -0.0007360266        0.2099365448
 C         -0.7202508523        1.2445105570       -0.2542595922
 C          0.7203884291        1.1995982107        0.2499473243
 N          1.3682080553        0.0006497788       -0.2550010185
 C          0.7214579395       -1.1988970110        0.2500558343
 C         -0.7190325005       -1.2451876239       -0.2543582279
 H         -2.4857561620       -0.0011966140       -0.1894653324
 H         -1.5358488510       -0.0008203636        1.3013120431
 H         -0.7072625192        1.2741980568       -1.3442305940
 H         -1.2095733351        2.1473026224        0.1138030738
 H          1.2743155807        2.0676300547       -0.1146775573
 H          0.7156648656        1.2323359649        1.3562095238
 H          2.3473399843        0.0010254435        0.0105982109
 H          1.2763024887       -2.0664181970       -0.1143346787
 H          0.7166402409       -1.2314426003        1.3563136115
 H         -0.7058420313       -1.2746393971       -1.3443374873
 H         -1.2075554289       -2.1485213539        0.1134124465
  17
  -19.2379224800000       6.021846334985447E-005 !md5
 C         -1.3683028033       -0.0339574702       -0.4243536733
 C         -0.7703032421        1.3016516725        0.0352825632
 C          0.7322889212        1.1340823879        0.3511678597
 N          1.3426917540        0.0259213199       -0.3609480094
 C          0.7743218337       -1.2468994775        0.0671460227
 C         -0.7396649434       -1.1814996087        0.3620872308
 H         -1.1770412388       -0.1845123563       -1.4900004610
 H         -2.4501477648       -0.0257009963       -0.2850951464
 H         -0.9105323915        2.0502947734       -0.7464463870
 H         -1.2890220764        1.6524819644        0.9283345118
 H          1.2792393567        2.0449856549        0.0988181837
 H          0.8753483344        0.9416394221        1.4178185988
 H          1.1841571266        0.1557352034       -1.3552674195
 H          0.9812208801       -1.9834145123       -0.7111938028
 H          1.3108126086       -1.5564513834        0.9708361706
 H         -1.2106414349       -2.1285521609        0.0980419362
 H         -0.9067871115       -1.0094755004        1.4267937755
  17
  -19.2379224500000       6.021655169402159E-005 !md5
 C         -1.3680754162        0.0326113711       -0.4245232996
 C         -0.7407605600        1.1807914814        0.3620712406
 C          0.7731173947        1.2475983332        0.0673650021
 N          1.3425829695       -0.0246259555       -0.3611628160
 C          0.7332905598       -1.1332712224        0.3512071983
 C         -0.7691031798       -1.3024326582        0.0354041678
 H         -1.1764444664        0.1831662662       -1.4901188305
 H         -2.4499454296        0.0234676811       -0.2856802781
 H         -1.2126124507        2.1273908936        0.0979293622
 H         -0.9077000327        1.0085167541        1.4268340031
 H          0.9795566859        1.9844934399       -0.7104981366
 H          1.3091289741        1.5570502775        0.9711744462
 H          1.1833246022       -0.1543125361       -1.3554129109
 H          1.2810732136       -2.0437408471        0.0991459027
 H          0.8762192264       -0.9403793844        1.4177215092
 H         -0.9084742373       -2.0513312877       -0.7462436429
 H         -1.2875456885       -1.6535608234        0.9284581672
  17
  -19.2379222300000       6.020253473988804E-005 !mtd4
 C         -1.3838135909       -0.0251262774        0.3704961540
 C         -0.7676659695        1.3001581016       -0.0949239120
 C          0.7462052907        1.1263418304       -0.3468574280
 N          1.3270097282        0.0345271026        0.4136208924
 C          0.7758155416       -1.2476228525       -0.0089422943
 C         -0.7252618163       -1.1896515596       -0.3648565745
 H         -2.4592450418       -0.0204719324        0.1886009772
 H         -1.2347847250       -0.1516906005        1.4459398870
 H         -1.2502065248        1.6307177833       -1.0154851899
 H         -0.9387437110        2.0659391621        0.6636259806
 H          0.9316542325        0.9100867550       -1.4024026165
 H          1.2832020314        2.0429751758       -0.0933350284
 H          1.1284591024        0.1860378949        1.3975609079
 H          1.3474165485       -1.5761491431       -0.8838313490
 H          0.9517080316       -1.9669518523        0.7925888973
 H         -0.8500975259       -1.0417320734       -1.4389290283
 H         -1.2066922131       -2.1307571713       -0.0983846047
  17
  -19.2379222000000       6.020062358994077E-005 !mtd1
 C         -1.3840458304        0.0238962122        0.3704727119
 C         -0.7264384753        1.1888453030       -0.3650009747
 C          0.7745391638        1.2483774622       -0.0087247021
 N          1.3273129140       -0.0332416361        0.4134068327
 C          0.7473647168       -1.1257499841       -0.3468438042
 C         -0.7664879461       -1.3007759990       -0.0948357540
 H         -2.4596300201        0.0183360297        0.1889380161
 H         -1.2347015112        0.1507343701        1.4458787367
 H         -0.8509615962        1.0401446961       -1.4390398811
 H         -1.2088638323        2.1296447862       -0.0991812366
 H          1.3460612806        1.5780812569       -0.8832933398
 H          0.9493995921        1.9675967860        0.7932989526
 H          1.1291282507       -0.1850501281        1.3973039497
 H          0.9327257237       -0.9096288960       -1.4023774054
 H          1.2852001888       -2.0417382599       -0.0929635525
 H         -1.2489731853       -1.6317276384       -1.0153067728
 H         -0.9367830318       -2.0666765926        0.6638603543
  17
  -19.2373116400000       3.155055779303132E-005 !gc
 C         -1.3683795923       -0.0018570472        0.3894680279
 C         -0.7669338052        1.2553863371       -0.2388017634
 C          0.7809583047        1.1962659796       -0.1929139658
 N          1.3079650349        0.0022531210        0.4430217885
 C          0.7835958020       -1.2015426067       -0.1767418110
 C         -0.7637085936       -1.2505814173       -0.2516229909
 H         -2.4509532797       -0.0022094312        0.2525831934
 H         -1.1763811034       -0.0077286113        1.4655503043
 H         -1.1029660972        1.3272675282       -1.2742783213
 H         -1.1298639533        2.1375460056        0.2902168025
 H          1.1847796277        1.2143032456       -1.2095661040
 H          1.1840334791        2.0588178018        0.3407277802
 H          1.0638389464        0.0093710687        1.4282583292
 H          1.2063571068       -1.2453638969       -1.1849738789
 H          1.1701248957       -2.0548144491        0.3832960860
 H         -1.0823610251       -1.3000748603       -1.2939117306
 H         -1.1406239703       -2.1406743967        0.2536835005
  17
  -19.2373099300000       3.149351826525674E-005 !md5
 C         -1.3476830783       -0.0017260645       -0.4556618858
 C         -0.7773727378        1.2545410471        0.2025431871
 C          0.7710686324        1.1975030067        0.2272167963
 N          1.3279216473        0.0014404449       -0.3789361913
 C          0.7735745342       -1.2004134481        0.2182354811
 C         -0.7752622828       -1.2513551486        0.2129035983
 H         -1.1034856064       -0.0063664212       -1.5211219876
 H         -2.4356667045       -0.0021279759       -0.3718050103
 H         -1.1167769717        2.1376922330       -0.3402582727
 H         -1.1605675799        1.3232008011        1.2217302619
 H          1.1969344786        2.0582590859       -0.2916624758
 H          1.1281676085        1.2207574757        1.2610823300
 H          1.1313591958        0.0054025904       -1.3747412713
 H          1.1893449358       -2.0556917668       -0.3172508523
 H          1.1434607031       -1.2391314928        1.2471742171
 H         -1.1242448619       -2.1406672384       -0.3134476991
 H         -1.1471545496       -1.3040583487        1.2371911448
