! pbe def2-sv(p) def2/J RI DEFGRID1 loosescf d4 GCP(DFT/SV(P)) printgap
%output
    printlevel normal
end
* xyz 0 1
C 1.9562865368 2.0110051628 -1.0281954283
C 2.2674890497 0.6802667776 -1.6807187524
O 2.8735688091 -0.2621160659 -0.7812300263
P 2.3231749755 -0.7090213959 0.6412367584
S 2.4895570374 0.5576747536 2.133526812
O 3.1342123991 -2.0530386376 0.854215812
C 4.3800854323 -2.0920627377 1.5775535951
C 5.4986018972 -1.4422771158 0.790630406
S 0.40432829 -1.5291211304 0.2596221029
C -0.5156887439 -0.7643510292 1.6247923581
S -1.17034246 0.8863879607 1.2400282823
P -2.2748631495 0.4421392477 -0.5176843166
S -1.363854061 0.4436676417 -2.2579065262
O -3.501341784 1.4521378192 -0.450872706
C -3.4383771909 2.7698053346 -1.019282909
C -2.5119696755 3.6740852878 -0.2320865585
O -2.9357611961 -0.9233586709 -0.0679825988
C -3.4271021354 -1.8798489183 -1.0307169491
C -4.6657191323 -1.3733023678 -1.7387831088
H 2.8477471154 2.4336752279 -0.571208704
H 1.575338223 2.6928242188 -1.7821859084
H 1.1982756926 1.8865480268 -0.2547341559
H 3.0082645625 0.7908800733 -2.4744686457
H 1.3572930047 0.2341277748 -2.0933660521
H 4.2404571954 -1.587132609 2.5390411766
H 4.5581999984 -3.1560413001 1.7375321414
H 6.4339437257 -1.5542424932 1.3299032096
H 5.5852220785 -1.9031573832 -0.1896893746
H 5.2862379926 -0.3816828002 0.6611621564
H 0.1473224831 -0.6189707082 2.4781301587
H -1.3392564868 -1.4301758108 1.8654798609
H -3.1027130423 2.6840439137 -2.0583520626
H -4.4701526123 3.1220905504 -0.9888211338
H -2.5456340638 4.6773205975 -0.6443667759
H -2.8072207606 3.7011587293 0.8135952065
H -1.4898831365 3.2995975226 -0.2928413881
H -2.6272525569 -2.0919987546 -1.7474999477
H -3.6343928428 -2.7693205203 -0.4345524356
H -5.0607415295 -2.1562761823 -2.3784077013
H -5.4199842357 -1.0808023733 -1.0131188068
H -4.4131448172 -0.5090966734 -2.3518346119
*
