! pbe def2-sv(p) def2/J RI DEFGRID1 loosescf d4 GCP(DFT/SV(P)) printgap
%output
    printlevel normal
end
* xyz 0 1
C 0.9135269934 -1.1072278318 2.5767775272
C 2.4087625073 -0.8769184707 2.6418420384
O 2.8895321449 -0.0315906828 1.5820985235
P 2.6787645571 -0.3369505652 0.0322801678
S 2.8223909977 -2.2022156452 -0.5299435104
O 3.8090495177 0.5541825045 -0.6096531196
C 3.956376413 1.9663113492 -0.3123057003
C 4.6916815134 2.6098547825 -1.4691119553
S 0.8755155788 0.7049875462 -0.4886722345
C 0.0272927789 -0.5933374997 -1.4145769363
S -1.183774094 -1.5179832444 -0.4235264475
P -2.5160041321 0.087431465 -0.1446411584
S -2.7715872398 1.327571685 -1.6481091148
O -1.9166046571 0.7132434168 1.1790703623
C -2.2489364035 2.0472410671 1.6277973371
C -1.0621263371 2.6015259359 2.3893662288
O -3.8596584435 -0.5660205064 0.4019087734
C -4.9194503248 -0.9989690965 -0.4682806359
C -4.5174747128 -2.1999096209 -1.2999911383
H 0.3785015298 -0.1626120081 2.512098479
H 0.6674896318 -1.7117117428 1.7039657212
H 0.5919237871 -1.640063022 3.4658923316
H 2.942537254 -1.830114694 2.5882382872
H 2.695339585 -0.3400041123 3.5476173189
H 2.9609137945 2.4005321024 -0.1796013399
H 4.5160846128 2.0509758005 0.620815709
H 4.8457632723 3.6620601441 -1.2529942494
H 5.6535086318 2.1259487275 -1.6123739874
H 4.1119558586 2.5119772269 -2.3827442376
H 0.7564001481 -1.3230719804 -1.7688961769
H -0.4913799901 -0.1069509889 -2.2397475222
H -2.480929585 2.6626330135 0.7516532891
H -3.1355974743 1.9735211828 2.261477469
H -0.1851258552 2.6174249739 1.7468263401
H -1.2883227326 3.6128676018 2.7111740654
H -0.8558132164 1.9863463914 3.2605410815
H -5.7379703971 -1.2353079922 0.2128422486
H -5.200416189 -0.1602265088 -1.1134428183
H -4.1343284834 -2.9913488085 -0.6606342565
H -5.3806107043 -2.5637613614 -1.848098016
H -3.7415037228 -1.9182619893 -2.0108377189
*
