! pbe def2-sv(p) def2/J RI DEFGRID1 loosescf d4 GCP(DFT/SV(P)) printgap
%output
    printlevel normal
end
* xyz 0 1
C 0.8598458212 1.3901051221 -0.6182527316
C 1.5938498132 0.1754776863 -0.0362422925
H 2.5710993972 0.0876244415 -0.5348459286
C 0.7742714241 -1.1021439185 -0.3272153592
H 1.2068601156 -1.9291051908 0.2513415615
C -0.6785527164 -0.9200815058 0.1578742746
H -1.2879650797 -1.7501269047 -0.2125020494
C -1.2460890623 0.3810242765 -0.4474684424
H -1.2377857018 0.2631293669 -1.553646259
O -0.4533885577 1.4963816556 -0.1070693194
O -2.5266248187 0.5909786321 0.0232507514
O -0.7734930095 -0.9561231451 1.5517718488
O 0.7446493281 -1.3848374139 -1.7038272194
O 1.7578974416 0.2632490909 1.3590323257
H 0.8265432609 1.2898945493 -1.7116394774
H 1.351412178 2.3237570125 -0.3431862194
H -2.7631208302 1.5229941665 -0.1073258007
H -0.170159953 -0.287482626 1.9208893445
H 1.5628705867 -1.8295620452 -1.9692039744
H 2.266432501 1.0568448337 1.5810620153
*
