! pbe def2-sv(p) def2/J RI DEFGRID1 loosescf d4 GCP(DFT/SV(P)) printgap
%output
    printlevel normal
end
* xyz 0 1
C 4.1383496129 -2.2601681555 1.1595886962
C 2.674872864 -2.1814449138 0.7720861607
O 2.5295556043 -1.1489791638 -0.2221958614
C 1.4630064014 -1.153600268 -0.9890307721
O 0.5596764619 -1.9635920262 -0.9119193152
C 1.4832283803 -0.0205127752 -1.9941415965
C 0.3279461584 0.9503669694 -1.7323552977
H 0.3029402031 1.7035148952 -2.5251876487
C 0.4514660997 1.6622547037 -0.3986269966
O -0.491180609 1.7700431434 0.3666282785
O 1.6467744152 2.1251450477 -0.1928116623
C 1.9419944274 2.8341033443 1.0324651362
C 2.7583905329 4.0665300731 0.6911312675
S -1.3135920938 0.1492221605 -1.8025734959
P -1.7730783313 -0.3564385131 0.2113305397
S -0.558610784 -0.7825848682 1.7051768792
O -2.9821509661 0.6076974384 0.5852890554
C -2.9909079553 1.5527340772 1.6541180058
O -2.7433245714 -1.5948679141 -0.1049142148
C -2.2802018817 -2.8951643537 -0.4644187443
H 4.2636462139 -3.0253075526 1.9182017435
H 4.7421963404 -2.511227601 0.2925079914
H 4.4694201106 -1.3056974977 1.5565785641
H 2.0381439842 -1.9208954927 1.6240264157
H 2.3100859984 -3.1216806247 0.3467189411
H 1.3542950871 -0.4467780032 -2.9891759308
H 2.4315216144 0.5101428693 -1.9194631975
H 1.0022346602 3.0857715887 1.5301674001
H 2.5069221998 2.1416240448 1.6613714097
H 3.6603864078 3.7786275522 0.1603160615
H 2.1818663187 4.7439958661 0.0677124983
H 3.0308945867 4.5754077154 1.6096406495
H -3.991993098 1.5198960948 2.0783643868
H -2.767626136 2.541989247 1.2581466942
H -2.2485449651 1.2820316323 2.4075034616
H -1.5098210592 -3.2268961363 0.2333868983
H -1.8672839582 -2.8860027433 -1.4728797215
H -3.1536064247 -3.5400222249 -0.4081356505
*
