! r2scan-3c def2/J RI DEFGRID2 scfconv6 printgap
%output
    printlevel normal
end
* xyz 0 1
C 3.4083378326 -2.1982026001 1.8162541032
C 2.0307110214 -2.099445594 1.1936120525
O 1.6771386159 -0.7287225873 0.9254577783
P 2.3543480801 0.0981279012 -0.2656031896
S 3.042118815 -0.9645761062 -1.7514402514
O 3.47990827 1.0019403464 0.3838116316
C 3.2301154758 1.8657913429 1.5213576022
C 4.5246776794 2.5824867816 1.8421008392
S 0.7911806272 1.468229186 -0.6947816561
C -0.0595477864 0.3950299224 -1.8780328083
S -0.9094471367 -0.9872485162 -1.0863696157
P -2.4850142093 0.181172662 -0.2317736018
S -3.1120987911 1.6595371228 -1.3453628325
O -1.9991123261 0.6575536841 1.184085999
C -1.5962991298 -0.2642685674 2.2316625721
C -0.6123437665 0.4567008595 3.1282827667
O -3.5624954112 -0.9243762702 0.1407716827
C -4.3455554299 -1.5839142048 -0.8769319013
C -5.5096941209 -2.2697309841 -0.19147109
H 4.1515668023 -1.8052159267 1.1223939743
H 3.4512545366 -1.6290472199 2.7411621192
H 3.6369150777 -3.238671618 2.0240196496
H 1.2513049839 -2.4504746604 1.8710933577
H 1.9879278469 -2.6607285464 0.2552727055
H 2.4375231411 2.5693646172 1.2511058083
H 2.8955640741 1.2476095725 2.3579804233
H 4.367263521 3.2386565255 2.6919695511
H 5.3017509396 1.8620415469 2.0804774208
H 4.8454944056 3.171130889 0.9875684032
H 0.6673165555 -0.0303706283 -2.5705645102
H -0.7918896493 1.0166373464 -2.3947983284
H -2.4982235264 -0.558164427 2.771003458
H -1.147475324 -1.1468162556 1.7661300601
H -1.0598171407 1.3695673465 3.5102605407
H -0.3439610199 -0.1897971617 3.9575792032
H 0.281282505 0.7148137589 2.5659780748
H -4.6866758629 -0.8315574392 -1.5953329098
H -3.7009432285 -2.3027660101 -1.3897270153
H -6.1249749861 -1.5359608469 0.321473364
H -6.1094343871 -2.7815709722 -0.9367629156
H -5.1422198919 -2.990968203 0.5324718111
*
