! pbe def2-sv(p) def2/J RI DEFGRID1 loosescf d4 GCP(DFT/SV(P)) printgap
%output
    printlevel normal
end
* xyz 0 1
C 5.2943420556 0.1225139629 -2.3384566922
C 3.8275624776 -0.2247003332 -2.1816987934
O 3.555435437 -0.3843519583 -0.7750098884
P 2.0917445654 -0.2486631706 -0.1750099663
S 1.1159054155 1.317852822 -0.8447695038
O 2.3492045302 -0.3316385006 1.381568001
C 2.5904928902 0.8330189515 2.1959905201
C 3.8694993708 1.5400281183 1.8039989274
S 1.3219311674 -2.1791811021 -0.5285532949
C -0.3198964926 -2.0478068561 0.2298433478
S -1.5120479768 -1.1278959481 -0.7885147017
P -2.2642869931 0.1911863161 0.7105482198
S -0.9684318064 0.6599940576 2.1054727882
O -3.4969277919 -0.5311557188 1.3785663443
C -4.8338581101 -0.620412874 0.826256945
C -4.8775921145 -1.3661694942 -0.4904164265
O -2.9682192849 1.38337633 -0.0556446863
C -2.2903188294 2.4217748719 -0.7885852163
C -2.2523341121 2.0987020182 -2.2684352856
H 5.907455575 -0.6575494115 -1.8967583501
H 5.5274610898 0.2098188611 -3.3944799584
H 5.5130389552 1.0648326117 -1.8440212408
H 3.5844173559 -1.1656760662 -2.6818480068
H 3.1821036643 0.5683651756 -2.5748262104
H 1.7262497531 1.4998739241 2.1113394023
H 2.6356094929 0.4324781487 3.209549265
H 4.0610859021 2.3481389969 2.5028812529
H 4.7019397582 0.841229846 1.8156512411
H 3.7688580361 1.9547772009 0.8015336446
H -0.2330421719 -1.5492061495 1.1987915861
H -0.6718623781 -3.0702290683 0.3367507135
H -5.3865470539 -1.1469516197 1.6059643621
H -5.2222935795 0.3932603221 0.7148402824
H -4.4423988201 -2.3563085973 -0.3838101051
H -5.9122614965 -1.4630434301 -0.8044781949
H -4.3245724375 -0.822169735 -1.2535482333
H -2.8779121161 3.3206994481 -0.592883194
H -1.2807502938 2.5532704222 -0.3897101539
H -1.8117961181 2.9370441903 -2.7978644755
H -1.6421257053 1.2165751582 -2.4481415219
H -3.2573119397 1.9215129524 -2.6405682686
*
