! wb97x-v def2-tzvp def2/J RIJCOSX DEFGRID2 scfconv7 GCP(DFT/TZ) printgap
%output
    printlevel normal
end
* xyz 0 1
S -8.699133582659916e-09 -0.06165339301528858 2.28022460077703e-11
H -0.975703646951653 0.8662646313402846 1.2315012046712241e-08
H 0.9756781470349133 0.8662914645257273 5.067983064307657e-10
*
