! pbe def2-sv(p) def2/J RI DEFGRID1 loosescf d4 GCP(DFT/SV(P)) printgap
%output
    printlevel normal
end
* xyz 0 1
C 4.0436286915 -1.1272617365 -2.7329592854
C 4.4371814025 -0.7125261764 -1.3313554178
O 3.5255114256 0.2448259328 -0.7556431275
P 1.968654199 0.0155554411 -0.5671757177
S 0.8014822981 0.2352990687 -2.1271653809
O 1.6052570468 1.0990499864 0.5174980842
C 2.4264485961 1.5400503612 1.6262027882
C 2.6362376381 0.4577172194 2.6650867943
S 1.8278657719 -1.9156198938 0.3027337773
C 0.028673039 -2.0203753679 0.2315924214
S -0.8010598126 -0.9551962272 1.4640374033
P -1.8742701535 0.4968970016 0.3650640895
S -1.2254062214 2.3073763954 0.0172377352
O -3.1816952944 0.6503514798 1.256363406
C -4.0219914287 -0.4584487744 1.6566417207
C -3.8881384867 -0.7085196983 3.1457045426
O -2.2684423029 -0.400747772 -0.9002167063
C -2.6917712271 0.1913471149 -2.1405621832
C -4.0824584724 0.7793569841 -2.027138962
H 3.9383066573 -0.2537875511 -3.3722545394
H 4.8060946528 -1.7825699101 -3.1412769418
H 3.0915669127 -1.65541601 -2.7157877914
H 5.3943246214 -0.1881623872 -1.3231056521
H 4.4811861629 -1.5813263414 -0.6690982836
H 3.3765508616 1.8957387768 1.2237940637
H 1.85601509 2.3799365165 2.0280555529
H 1.6802151943 0.0445432788 2.9804193648
H 3.2547353179 -0.343852972 2.2670653621
H 3.1344498727 0.8939784203 3.5253093031
H -0.2311101518 -3.0463657401 0.4770117741
H -0.3100013757 -1.7422622876 -0.7666334662
H -5.0366935088 -0.1484949813 1.3998539382
H -3.7507330913 -1.3443519417 1.0764710325
H -2.8753160949 -1.0210398588 3.3891646452
H -4.114712605 0.2014372376 3.694110207
H -4.5840192137 -1.4881061405 3.4387344574
H -1.9637350947 0.956880036 -2.4280867087
H -2.6486416146 -0.6317283851 -2.8555602446
H -4.3806552173 1.178771735 -2.9912134572
H -4.7918179791 0.0166620085 -1.7161277399
H -4.0799486849 1.5869484765 -1.295204163
*
