! pbe def2-sv(p) def2/J RI DEFGRID1 loosescf d4 GCP(DFT/SV(P)) printgap
%output
    printlevel normal
end
* xyz 0 1
C 3.5667264396 -1.11783766 1.8490984759
C 2.8383429537 -1.9878011222 0.8384960403
O 2.6397343031 -1.282035501 -0.4052086291
C 1.6090557132 -0.4973761514 -0.5441928578
O 0.7796394564 -0.2700648352 0.3299394655
C 1.506538883 0.1344771111 -1.9070747911
C 0.2977315075 1.0585591917 -1.9063145018
H 0.2319634884 1.6172012252 -2.8432449541
C 0.3397375056 2.0473384241 -0.7491270455
O -0.6270573847 2.3868396047 -0.1084412972
O 1.5601697592 2.5165739755 -0.5861867665
C 1.8064969721 3.4869643328 0.4540505445
C 2.5405676941 2.8369396694 1.6148049779
S -1.2915861005 0.1479797553 -1.8708577202
P -1.6058755711 -0.7913123133 -0.0029989067
S -0.9108471011 -2.5730910742 0.4854716625
O -1.8103986569 0.1979553466 1.2324746373
C -0.9851663416 0.3076452085 2.3845157497
O -3.1462708253 -0.9279312575 -0.4549067457
C -4.0902118055 -1.6950323956 0.2926652936
H 4.5030051005 -0.7610999168 1.4290635036
H 2.9512259989 -0.265602496 2.1266762032
H 3.7730099897 -1.7040481452 2.7382161616
H 1.8652823782 -2.311857681 1.2181478446
H 3.4341394211 -2.8555447263 0.5565452758
H 1.395348665 -0.6457273237 -2.6613330089
H 2.4218809181 0.6910347016 -2.1138937346
H 2.4180371308 4.2575007282 -0.0174886134
H 0.8485535351 3.9064063783 0.7734300262
H 1.9381299957 2.0346264017 2.0372607756
H 3.4878678192 2.4258456442 1.2775209749
H 2.7250671874 3.5789481473 2.3844378985
H -1.6549867131 0.5334524063 3.2116219617
H -0.2746980161 1.119182216 2.237379611
H -0.4555025102 -0.6299011609 2.5614251589
H -4.4160525963 -1.1336938447 1.1681317798
H -3.643377931 -2.6424642923 0.6044693631
H -4.9251992895 -1.8741153025 -0.3802209463
*
