! wb97x-v def2-tzvp def2/J RIJCOSX DEFGRID2 scfconv7 GCP(DFT/TZ) printgap
%output
    printlevel normal
end
%cpcm
    smd true
    smdsolvent "water"
end
* xyz 0 1
C 5.281510157127534 -2.4399023105766315 -1.2731866529921203
C 4.364917850850355 -1.2644306843062394 -1.4890354034557298
O 3.521579879374389 -1.1477484649464316 -0.28884473867975374
P 2.62298014794251 0.15942259699221328 -0.0187871302519611
S 3.465510400622477 1.9080200566554661 -0.12689732776442555
O 2.072659096663094 -0.12443313834785505 1.4558891828309106
C 1.389292593861141 -1.381583757792152 1.8200125505897247
C 2.300815324516256 -2.227980478742118 2.6709916716895283
S 1.0529440743950462 -0.18582792363189812 -1.4152859293061275
C 0.16894647319918465 1.4177736335306066 -1.3329499197820571
S -0.8151920434086617 1.7331782511555913 0.18482010559630918
P -2.405305167593523 0.35775454189050804 -0.06950888198268247
S -2.987228172831517 0.04032302139585385 -1.901235009242168
O -3.500321103239235 0.9488405016192302 0.953721111130323
C -4.401616815672264 2.0355134165796405 0.5431782978372899
C -5.2569103358348706 2.3760011096339104 1.7353223987528037
O -1.875923904641319 -0.9117492129608017 0.7567391320094776
C -2.6899581102957133 -2.138923194267122 0.8390349603684905
C -1.786377620101244 -3.243067162288817 1.3218676484235894
H 4.710667412466319 -3.362006168816213 -1.132459956833548
H 5.916808810373111 -2.5581390153628383 -2.156174155746851
H 5.923970588821562 -2.2786707708556606 -0.4031259091664977
H 3.7100112095503004 -1.412391975204739 -2.3533494182482446
H 4.922069731159608 -0.3303257350380217 -1.6101880450643296
H 0.5002061601836517 -1.0621051088689948 2.3675153147117993
H 1.0752843756558714 -1.9018081387012356 0.9106889167791449
H 1.7517760465969732 -3.1204658239644183 2.989507958511157
H 3.1845635537892494 -2.546450334569293 2.1117470343133413
H 2.6180472420206096 -1.6831182469773662 3.5645987535192414
H -0.4917236870455527 1.442049371757423 -2.2042543588538894
H 0.8909156864270497 2.2379481996593578 -1.3979081204255979
H -3.793984767395586 2.888557450966609 0.22278920947166397
H -4.999323704201819 1.6803427526162458 -0.30131060364718276
H -5.946546760551349 3.1784654290605996 1.4564984324998862
H -5.845188336526346 1.510686757390696 2.0537484852007464
H -4.645081280237083 2.7217346394831914 2.5731645968159715
H -3.5124513602380034 -1.9441065985373691 1.5339273237697102
H -3.095371313210999 -2.354987560556501 -0.1543481515322254
H -0.9769215942901238 -3.4248696530481255 0.6091921165013024
H -1.3575211442770674 -3.005018010513697 2.299645974945987
H -2.374797426994195 -4.160856999513463 1.4178696839348504
*
