! pbe def2-sv(p) def2/J RI DEFGRID1 loosescf d4 GCP(DFT/SV(P)) printgap
%output
    printlevel normal
end
* xyz 0 1
C 2.9673199901 0.4155721343 -3.015330344
C 2.6074099969 -0.9827783991 -2.5551861058
O 1.7124225699 -0.9635435403 -1.4240499899
P 2.1404203472 -0.5957846239 0.0542856473
S 2.7382076607 1.2210534409 0.5149474269
O 3.2701837924 -1.6958830094 0.2968345525
C 4.1940133483 -1.6241926115 1.3943112389
C 3.5067888583 -1.8312362346 2.7286819387
S 0.4316934322 -1.3099096022 1.0547105888
C -0.1332912107 0.2252123082 1.8767800542
S -1.9164235379 0.4452375657 1.7634643383
P -2.1198582427 0.9415143139 -0.3023676872
S -0.4754816554 1.4264216671 -1.253037791
O -3.1253847642 2.1466194764 -0.3619762915
C -4.2605042455 2.3815208975 0.5103363308
C -5.1846067396 1.18963448 0.6293001967
O -2.9885761358 -0.2372561406 -0.9271640557
C -2.6367120464 -1.6306122108 -0.9311122316
C -1.668327267 -1.9684888643 -2.0473885477
H 3.5133975566 0.3606268429 -3.951500446
H 2.061332883 1.0019885337 -3.1569759909
H 3.5836502052 0.9173869844 -2.2716648668
H 3.4984313796 -1.5564385636 -2.2882932244
H 2.037757637 -1.5146003005 -3.3195669787
H 4.9144439537 -2.4154915896 1.183115289
H 4.6891490937 -0.6481951175 1.3656893123
H 2.9170659663 -2.74428071 2.7133690302
H 4.2548200779 -1.8955483545 3.5121788824
H 2.849611883 -0.9878719227 2.9378883782
H 0.3843598922 1.071180169 1.4166647356
H 0.0858511556 0.157109337 2.9394443231
H -3.8736659181 2.6726289345 1.4898786317
H -4.757543694 3.2315574393 0.0402581332
H -4.6835299148 0.3732774863 1.1459718307
H -6.060382996 1.4813911607 1.2008455897
H -5.4939800719 0.8523804816 -0.3563750919
H -2.2156551989 -1.8999083395 0.0431175222
H -3.5915491717 -2.1410458355 -1.0715029452
H -1.4967181795 -3.0400122293 -2.0596519982
H -2.0751110534 -1.6543614134 -3.005019174
H -0.7171910361 -1.462186203 -1.8935634367
*
