! pbe def2-sv(p) def2/J RI DEFGRID1 loosescf d4 GCP(DFT/SV(P)) printgap
%output
    printlevel normal
end
* xyz 0 1
C 5.5660121589 1.0011279143 -1.2141329634
C 4.318002829 1.3332610772 -0.4217210162
O 3.3305351869 0.3177207708 -0.697910251
P 2.119350183 0.0429808055 0.2893844626
S 2.6113622786 -0.1333670861 2.1822187897
O 1.4243203399 -1.2065858055 -0.3832228344
C 1.6983409053 -2.5601639876 0.0258291833
C 3.1110032737 -2.9734130931 -0.3259451044
S 0.7582012554 1.5757183681 -0.1824054968
C -0.2747182084 1.4103243249 1.3027525425
S -1.0670545497 -0.2148872415 1.4534491556
P -2.1699922158 -0.2685692246 -0.3661134315
S -1.3399297311 -0.7626791825 -2.0623462241
O -2.8865304917 1.1578025612 -0.3294013692
C -2.9863059208 2.0558126731 -1.4553620284
C -2.2725930934 3.3589984643 -1.1570805828
O -3.290215442 -1.3266210873 -0.0044780965
C -4.194168271 -1.1740806132 1.1212285474
C -5.4914778323 -1.8746004769 0.7731375493
H 6.3067628488 1.7770523078 -1.0514286653
H 5.9717146999 0.0454165211 -0.894349498
H 5.3274902265 0.9454406997 -2.2723170879
H 3.9020537873 2.2995994153 -0.7188079434
H 4.5162439977 1.342659863 0.6555886224
H 1.5241975855 -2.6367052058 1.1047281151
H 0.9525826693 -3.1483071861 -0.512119745
H 3.2513673261 -4.0219147584 -0.0827326644
H 3.29207038 -2.8169111432 -1.3862081398
H 3.8206955549 -2.3767284354 0.2465898326
H -1.0326545017 2.1876242322 1.2532807394
H 0.3486213632 1.5158348378 2.1909741897
H -2.5631389806 1.5643068469 -2.3375744257
H -4.0554757536 2.2170148946 -1.6062093512
H -2.6579093782 3.7981655934 -0.2409809392
H -1.2012531299 3.1936946889 -1.056326459
H -2.4443562354 4.0461388125 -1.9791826504
H -3.7141526946 -1.6280550819 1.9910629398
H -4.3507097316 -0.1091657142 1.3062963882
H -6.1706494921 -1.8051445279 1.6167317974
H -5.9478323361 -1.4110662024 -0.0970275485
H -5.2995876994 -2.9201390251 0.5497952329
*
