! pbe def2-sv(p) def2/J RI DEFGRID1 loosescf d4 GCP(DFT/SV(P)) printgap
%output
    printlevel normal
end
* xyz 0 1
C 5.3125073345 -2.0880376911 -1.3411688706
C 4.2831516383 -0.9797354859 -1.4351070367
O 3.2150339251 -1.2876553013 -0.5167991322
P 2.2256011781 -0.1707432699 0.0225076216
S 3.0806122406 1.4731643088 0.6712641752
O 1.3669323542 -0.9833506607 1.0726290426
C 1.6777752439 -0.9558833598 2.4841273397
C 2.9757738328 -1.6759128888 2.7799558821
S 0.8499867209 0.0694014595 -1.5669531816
C 0.1128561009 1.6079822895 -0.9479682492
S -0.8752469679 1.3652574821 0.5440774749
P -2.4415228379 0.2607679015 -0.4077153796
S -2.904881591 0.8301732985 -2.2172520921
O -3.6176800967 0.2878744914 0.6606631054
C -4.5993224386 1.3403794795 0.70776996
C -3.9989207887 2.6753376722 1.0970759489
O -1.9728043768 -1.2441282824 -0.3616455179
C -1.7216189309 -1.9618572652 0.8709642133
C -2.8980488983 -2.8521190149 1.2133814704
H 5.7293151833 -2.1295916739 -0.3389045833
H 4.8488779602 -3.0430798364 -1.5702756347
H 6.1089318082 -1.8947259859 -2.0522001085
H 3.8588589782 -0.9116931913 -2.4404658153
H 4.7111330591 -0.0093805438 -1.1609836411
H 1.7289976316 0.0888309624 2.8066466446
H 0.8240690174 -1.4477002768 2.9516063218
H 3.1334523901 -1.709696685 3.8533408361
H 2.9439494397 -2.6874007417 2.3840581594
H 3.8050838616 -1.142292561 2.3169863595
H -0.5235434855 1.989780001 -1.7464638486
H 0.9045207149 2.3128147948 -0.693337287
H -5.0791947335 1.4058253151 -0.2732912055
H -5.3173795884 0.990916123 1.4510335176
H -3.4180040689 2.5791997006 2.0110129647
H -3.3474266514 3.0379735436 0.3035973121
H -4.7971291212 3.3943640173 1.2508908093
H -0.8193127699 -2.5442562156 0.6725152581
H -1.524838041 -1.2382517152 1.6670538001
H -3.780876396 -2.2491304339 1.4084100345
H -3.1075664527 -3.5234028085 0.3851300394
H -2.6581983765 -3.4353955858 2.0968686922
*
