! pbe def2-sv(p) def2/J RI DEFGRID1 loosescf d4 GCP(DFT/SV(P)) printgap
%output
    printlevel normal
end
* xyz 0 1
C 1.7279970765 -1.597298152 -2.9028872196
C 2.2871706705 -0.2565272292 -2.4667779887
O 2.9980535768 -0.3693063191 -1.2204556219
P 2.3251837428 -0.095182242 0.1808554031
S 1.1482974293 1.4833017861 0.27266095
O 3.6799248731 0.0108466048 0.9867137432
C 3.6696094857 0.2556298184 2.4080515358
C 5.08740013 0.5851009934 2.8286416949
S 1.4882398427 -1.9281846349 0.8587867322
C -0.2554944665 -1.4802819099 1.0535629441
S -1.0868261982 -1.1360922753 -0.5288069178
P -2.180563108 0.6261699058 -0.0281552374
S -2.0632976406 1.2093770562 1.8383686363
O -3.6666214372 0.3089558303 -0.5140708875
C -4.6456480608 -0.318885839 0.3300777654
C -4.2580678243 -1.7303830552 0.7214438496
O -1.7538604461 1.7345863844 -1.0650830508
C -2.2256774171 1.8291273567 -2.4321385808
C -1.8640589941 0.6142890473 -3.260069418
H 2.5207263608 -2.3399275159 -2.9076387984
H 0.9408801995 -1.9268081709 -2.2274722105
H 1.3173490034 -1.5047573914 -3.9033182027
H 1.4975045352 0.4959057096 -2.3544820484
H 3.0344835685 0.1096452965 -3.1733760699
H 2.9853796235 1.0856369755 2.6178721599
H 3.3043695072 -0.6443942064 2.9120672107
H 5.431254649 1.4766194729 2.3120941433
H 5.1114197619 0.757550934 3.899611961
H 5.7458339703 -0.2415882178 2.579247407
H -0.3552869806 -0.5948232704 1.6871636373
H -0.7187537241 -2.3495472168 1.5139282568
H -4.7790814084 0.3012809889 1.2218505692
H -5.5541109938 -0.3030351962 -0.2738573287
H -5.0895281232 -2.1970584861 1.2397584181
H -4.0063728209 -2.3155009657 -0.1593859709
H -3.3992030219 -1.7030441156 1.3907858413
H -3.3069620558 1.9789715594 -2.4086572938
H -1.7320675217 2.7304677058 -2.7994395146
H -2.3569697781 -0.2721626104 -2.8642747373
H -2.1891659626 0.7748412276 -4.2832033693
H -0.7894086824 0.4512282261 -3.2475192004
*
