! wb97x-v def2-tzvp def2/J RIJCOSX DEFGRID2 scfconv7 GCP(DFT/TZ) printgap
%output
    printlevel normal
end
%cpcm
    smd true
    smdsolvent "water"
end
* xyz 0 1
C 1.8631160810280605 -1.4345229941273343 -0.00024644445495358263
C 0.5568419224856259 -0.7052374630871457 0.00017373630441313743
C -0.6579011303071997 -1.3898772376899564 0.0002601884778466924
C -1.8518825005898967 -0.6818826813065597 9.591249962006456e-05
N -1.9142499675250204 0.6566708106579294 6.258081901754347e-05
C -0.7420822069896312 1.309460904379338 0.00011933292331203076
C 0.5111045849566492 0.7003522092059604 8.62357504903092e-05
C 1.7615700661198954 1.5250767748212017 -0.00016110175767731585
H 2.4628019358706066 -1.162616642093357 0.8759998000209488
H 1.711396299217266 -2.515912734570108 0.003467435201443548
H 2.4586950892449084 -1.1683196621218592 -0.8810886141282102
H -0.6731746265075749 -2.4757486430559945 0.00042484931770496215
H -2.801067705101612 -1.2137440670209785 0.00023158580309830533
H -0.8001880573026482 2.3972869034159725 -4.342755534488768e-05
H 1.5256612924971173 2.5919687801017326 0.0004137278033188983
H 2.378495828267526 1.3078590594231823 0.8792130379272032
H 2.3776247195382276 1.308613564100327 -0.8803424834303195
*
