  20
        -27.11163878
 C         -1.3167430758       -1.4084998398        0.6421767506
 C         -1.3852579435       -0.1809200581       -0.2646757582
 C         -2.8262206796        0.0622559694       -0.7118017477
 C         -0.8543410860        1.0780162301        0.4327723129
 C          0.6224972681        1.0141076677        0.8106694702
 O          1.4414368071        0.9161400200       -0.3725212103
 C          2.0775380478       -0.1973092218       -0.6121823995
 O          2.0957460846       -1.1928109907        0.0681821325
 H         -1.8074369260       -2.2527376787        0.1637034796
 H         -1.8160116915       -1.2115968381        1.5880480660
 H         -0.2869722860       -1.6967245107        0.8409377435
 H         -0.7741610328       -0.3720583705       -1.1554320668
 H         -2.8850248648        0.9229068234       -1.3734707189
 H         -3.4612972121        0.2452432402        0.1515780657
 H         -3.2099361185       -0.8049585429       -1.2431054352
 H         -1.4217268162        1.2498390487        1.3480396212
 H         -0.9993828446        1.9343087463       -0.2280130670
 H          0.9270374667        1.9404319729        1.3011493979
 H          0.8383144034        0.1614444759        1.4579957354
 H          2.6315254678       -0.1054659598       -1.5591671461
  20
        -27.11104025
 C         -2.2814226716       -0.7197802815        1.2609741053
 C         -1.5779398026       -0.3622526518       -0.0464495292
 C         -2.6100135445        0.0140940377       -1.1082176753
 C         -0.5902387854        0.7963279379        0.1433337471
 C          0.6446932169        0.4201687650        0.9566180084
 O          1.3851565523       -0.6394439082        0.3176924989
 C          2.2837182537       -0.3153444487       -0.5728032932
 O          2.5931877439        0.7953834643       -0.9243872288
 H         -2.8084246515        0.1460256274        1.6552239998
 H         -1.5735386905       -1.0672308915        2.0078808723
 H         -3.0050256572       -1.5128228561        1.0899048346
 H         -1.0191214609       -1.2375323949       -0.3960561723
 H         -2.1259650390        0.2376999778       -2.0562544542
 H         -3.1714336137        0.8908730066       -0.7937412885
 H         -3.3087819068       -0.8035127113       -1.2657204700
 H         -1.0874315303        1.6250460234        0.6484719613
 H         -0.2558987082        1.1500229885       -0.8351204093
 H          1.3022270412        1.2876664482        1.0624775237
 H          0.3799713274        0.0244719769        1.9361800650
 H          2.7521623528       -1.2285184712       -0.9713739614
  20
        -27.11103563
 C         -2.3314864878       -1.5569127866        0.4369164078
 C         -1.5548568624       -0.3785199912       -0.1482348839
 C         -2.5180177707        0.7425870530       -0.5322580857
 C         -0.5074913362        0.0980522147        0.8664008541
 C          0.4907556477        1.0998502125        0.2935211218
 O          1.2092078573        0.5404837618       -0.8245281937
 C          2.2838552415       -0.1600594737       -0.5799761307
 O          2.7745854393       -0.3887168329        0.4970680187
 H         -3.0637854505       -1.9223040867       -0.2784806841
 H         -2.8550568455       -1.2518228255        1.3400188845
 H         -1.6608852437       -2.3755308485        0.6883450877
 H         -1.0323944532       -0.7168675951       -1.0500705981
 H         -3.2812135951        0.3624332325       -1.2066838014
 H         -1.9989755150        1.5526712658       -1.0363443418
 H         -3.0094387615        1.1388196603        0.3533258721
 H          0.0523863059       -0.7639333223        1.2376189202
 H         -1.0049739158        0.5673156116        1.7158485527
 H         -0.0054104608        1.9824960608       -0.1075008936
 H          1.2140739386        1.3873762843        1.0618404608
 H          2.7098728276       -0.5226551391       -1.5282807289
  20
        -27.11094204
 C         -2.9178828548       -0.9066920248       -0.4783641818
 C         -1.8260028497        0.0824025335       -0.0719355554
 C         -1.5480012762       -0.0297807674        1.4250303675
 C         -0.5676795830       -0.1726484573       -0.9103366552
 C          0.5122138267        0.8984381033       -0.7730510773
 O          1.2118734116        0.8205550003        0.4848627035
 C          2.2412466100        0.0217053026        0.5698847751
 O          2.7018077743       -0.6683103345       -0.3048635141
 H         -2.5909437199       -1.9276862366       -0.2941461701
 H         -3.1555629383       -0.8070497997       -1.5344785931
 H         -3.8234077227       -0.7283759967        0.0957405150
 H         -2.1801912037        1.0965938773       -0.2857491982
 H         -2.4631115901        0.1319130375        1.9897561688
 H         -0.8143555098        0.7060741282        1.7417795832
 H         -1.1686752353       -1.0212917883        1.6658185999
 H         -0.8489514063       -0.2088865316       -1.9637454401
 H         -0.1368972122       -1.1418405970       -0.6480258100
 H          1.2481622882        0.7861667365       -1.5744998857
 H          0.0800827302        1.8992564013       -0.7913444892
 H          2.6599730848        0.0684383516        1.5870040455
  20
        -27.11062596
 C         -2.8944544859       -0.6139157903       -0.9989572948
 C         -1.9646895966        0.1094334735       -0.0257148978
 C         -2.0750981093       -0.5121967120        1.3647346356
 C         -0.5285704597        0.0538944199       -0.5584471468
 C          0.4483473389        0.8856126213        0.2681751493
 O          1.7172528474        0.9917343584       -0.4082357434
 C          2.6070207721        0.0567165938       -0.2041127424
 O          2.5011418267       -0.9030735864        0.5167770952
 H         -2.6131784778       -1.6612414471       -1.0814622461
 H         -2.8432606589       -0.1648729292       -1.9876391278
 H         -3.9227472739       -0.5613846746       -0.6510491781
 H         -2.2713145234        1.1590744026        0.0336137349
 H         -1.6909537748       -1.5297311549        1.3556544014
 H         -3.1152409730       -0.5417025584        1.6793409326
 H         -1.5162384552        0.0617260321        2.0983660908
 H         -0.5104424895        0.4333013446       -1.5824689443
 H         -0.1840368274       -0.9828750143       -0.5756324183
 H          0.0994249863        1.9134984324        0.3720770844
 H          0.6177927101        0.4358281146        1.2493867623
 H          3.5103035331        0.2747427616       -0.7941352973
  20
        -27.11057223
 C         -2.4389746038       -0.0410283782        1.4337312818
 C         -1.8098454877       -0.4754314153        0.1116844722
 C         -2.8237076433       -0.3294885999       -1.0223150632
 C         -0.5568691683        0.3437440544       -0.2187757540
 C          0.5876086765        0.1054056626        0.7621539196
 O          1.7524941133        0.8598648684        0.3728806784
 C          2.5953566552        0.3145337592       -0.4634556222
 O          2.5275912717       -0.7852120888       -0.9517308325
 H         -2.6658327425        1.0221179403        1.4129620818
 H         -1.7762832572       -0.2408933798        2.2705357751
 H         -3.3653344970       -0.5849442381        1.6001243829
 H         -1.5221683094       -1.5296381668        0.1873088868
 H         -3.7088546277       -0.9264523762       -0.8189045824
 H         -2.3968923018       -0.6606768415       -1.9659026287
 H         -3.1263506299        0.7097387676       -1.1270261117
 H         -0.8023421290        1.4073133457       -0.2268773180
 H         -0.2066713730        0.0693297795       -1.2172257040
 H          0.3472722465        0.4687100274        1.7604915693
 H          0.8503157607       -0.9562127172        0.7918385713
 H          3.4185744388        1.0169092180       -0.6648017656
  20
        -27.11027281
 C         -2.0701248767       -1.3444531610        0.6901634289
 C         -1.7387839199       -0.1640254919       -0.2203755155
 C         -3.0272369162        0.5232588471       -0.6692448722
 C         -0.8300715490        0.8540172697        0.4815993842
 C          0.5931841153        0.3571636542        0.6837603311
 O          1.1965111014        0.1610298919       -0.6125016656
 C          2.4703585542       -0.1143725253       -0.6536045025
 O          3.2133895555       -0.2290795624        0.2896239042
 H         -1.1741647606       -1.8869055085        0.9800125963
 H         -2.7304073409       -2.0392917375        0.1770986211
 H         -2.5712457237       -0.9975815778        1.5911235097
 H         -1.2127444385       -0.5352905362       -1.1060165755
 H         -3.5582027504        0.9271574723        0.1896517580
 H         -3.6793139480       -0.1849476264       -1.1739076503
 H         -2.8110479794        1.3379790391       -1.3557095796
 H         -1.2445444336        1.1050853679        1.4582405002
 H         -0.7872333067        1.7643722347       -0.1179803823
 H          1.1957526388        1.0845850311        1.2361966095
 H          0.6265167882       -0.5925902028        1.2240915510
 H          2.7933065093       -0.2321370827       -1.6990544284
  20
        -27.11026210
 C         -2.8373328610       -1.0155306809        0.9363495909
 C         -1.7256832064       -0.4271811493        0.0688630803
 C         -2.3287164302        0.4695214074       -1.0101217068
 C         -0.7351486633        0.3386711242        0.9559351808
 C          0.5397730041        0.7479024569        0.2332349097
 O          1.2280098007       -0.4436119141       -0.2011182988
 C          2.4965533785       -0.3495436996       -0.4873793436
 O          3.1779727143        0.6443457056       -0.4348150585
 H         -3.3803032308       -0.2212146468        1.4434476157
 H         -2.4276206029       -1.6867338260        1.6870344048
 H         -3.5402386932       -1.5752361526        0.3247349498
 H         -1.1851364005       -1.2475780389       -0.4141904334
 H         -1.5667738428        0.8389450259       -1.6909976844
 H         -2.8321780069        1.3208148785       -0.5574078710
 H         -3.0565593456       -0.0876704069       -1.5946422645
 H         -0.4590857427       -0.2915115815        1.8027844134
 H         -1.2091994418        1.2418683800        1.3413690532
 H          0.3304653413        1.3577635321       -0.6491933668
 H          1.2085652543        1.3121544883        0.8904348400
 H          2.8825024456       -1.3337575827       -0.7932100249
  20
        -27.11025468
 C         -1.1501504825       -1.3408152431        0.3661669206
 C         -1.6696613366       -0.1084038766       -0.3715027023
 C         -3.1469762056        0.1121597589       -0.0485369222
 C         -0.8787692282        1.1558195639       -0.0129143888
 C          0.6013662604        1.1064580814       -0.3810011508
 O          1.3581581055        0.4984019223        0.6866428541
 C          2.2185873700       -0.4393560683        0.4074841635
 O          2.4824139663       -0.8927864670       -0.6793408282
 H         -0.1530864128       -1.6145974166        0.0280873690
 H         -1.8045322727       -2.1901303156        0.1840060130
 H         -1.1146632419       -1.1574711373        1.4379484298
 H         -1.5710338802       -0.2828603929       -1.4488919392
 H         -3.7326021490       -0.7565674127       -0.3378799871
 H         -3.5318412460        0.9779352058       -0.5812542184
 H         -3.2797150075        0.2754510341        1.0182967932
 H         -0.9548133980        1.3433409673        1.0593367929
 H         -1.3234500570        2.0018055493       -0.5374294847
 H          0.7756441015        0.5433731618       -1.3022247147
 H          1.0008304422        2.1174680356       -0.4917921738
 H          2.6965816079       -0.7872392854        1.3361827446
  20
        -27.10994975
 C         -1.4728335299       -1.4363824289        0.5211705581
 C         -1.8237039810       -0.2572207252       -0.3833972472
 C         -2.7007666556        0.7463124521        0.3633036856
 C         -0.5756599519        0.4063802177       -0.9852452794
 C          0.3818558790        1.0565878884        0.0113177436
 O          1.0928452613        0.0881435035        0.8074874958
 C          2.1902677522       -0.4242774307        0.3222339712
 O          2.7088262900       -0.1677779488       -0.7360381869
 H         -0.8486447494       -2.1540915368       -0.0076426748
 H         -2.3795120662       -1.9437423839        0.8421972106
 H         -0.9366436527       -1.0990418961        1.4042369606
 H         -2.4004135952       -0.6428845471       -1.2323201858
 H         -2.9005369689        1.6176740950       -0.2551563293
 H         -2.2242102806        1.0710531265        1.2842789277
 H         -3.6503072916        0.2856115049        0.6237728366
 H         -0.8955809995        1.1889043445       -1.6749134360
 H         -0.0157697001       -0.3342057975       -1.5616896652
 H          1.1196107486        1.6529269383       -0.5336181177
 H         -0.1466371602        1.6794230431        0.7311613334
 H          2.6083721512       -1.1467104659        1.0403832145
  20
        -27.10992967
 C         -1.9102447445       -1.4803224410        0.7240859782
 C         -1.9494822361       -0.3668319288       -0.3209831433
 C         -2.7876019317        0.8089026340        0.1774679306
 C         -0.5405242429        0.0688441073       -0.7476427354
 C          0.3173012892        0.6201049630        0.3884990627
 O          1.5830092686        1.0829638476       -0.1256295488
 C          2.5576300180        0.2206252646       -0.2391968731
 O          2.5347041118       -0.9470157472        0.0588457894
 H         -1.2486289078       -2.2827218369        0.4064129826
 H         -2.9057256498       -1.8930256405        0.8669408320
 H         -1.5614267069       -1.1023638773        1.6815131287
 H         -2.4294432185       -0.7659320319       -1.2216190849
 H         -2.7801800836        1.6203672285       -0.5455761887
 H         -2.4099946887        1.1815515356        1.1256915273
 H         -3.8168613274        0.4925704850        0.3263627634
 H         -0.6198972226        0.8377848102       -1.5190237571
 H         -0.0193958808       -0.7890770135       -1.1803596978
 H         -0.1335480351        1.5017741687        0.8418676135
 H          0.5105844526       -0.1486883257        1.1403627992
 H          3.4464260483        0.7231511374       -0.6506878965
  20
        -27.10991693
 C         -1.4964953164       -1.3398277058        0.4700977243
 C         -1.8123222638       -0.0892470044       -0.3462849359
 C         -3.2592960126        0.3402685314       -0.1071422746
 C         -0.8711678364        1.0713359555       -0.0008837488
 C          0.5839373946        0.8367617106       -0.3837220613
 O          1.2287169678        0.0439972872        0.6349775753
 C          2.4015201405       -0.4577700642        0.3664676942
 O          3.0198373364       -0.3375766789       -0.6626173835
 H         -2.2068923127       -2.1298335846        0.2378361932
 H         -1.5579979927       -1.1224102582        1.5338241503
 H         -0.4975005273       -1.7087545199        0.2546178080
 H         -1.6920846683       -0.3259835521       -1.4095773456
 H         -3.5080332340        1.2101202214       -0.7097804132
 H         -3.4104152909        0.5909101429        0.9400640314
 H         -3.9416969111       -0.4642336857       -0.3688298350
 H         -0.9148849094        1.2704394002        1.0706170133
 H         -1.2094789054        1.9637283150       -0.5281388496
 H          0.6776981290        0.3164957797       -1.3420951555
 H          1.1271294957        1.7839844724       -0.4529184797
 H          2.7682071898       -1.0323838463        1.2306242757
  20
        -27.10991326
 C         -3.1786612195       -0.0468887126        0.7615452669
 C         -1.7419223098       -0.4099579041        0.3881177973
 C         -1.6162019473       -0.5541780321       -1.1264120508
 C         -0.7856941687        0.6532784615        0.9425025979
 C          0.6903404175        0.2990922812        0.8189832500
 O          1.1538055958        0.6137230418       -0.5107102755
 C          2.2839931436        0.0967237952       -0.9040593899
 O          3.0020392128       -0.6380968836       -0.2714160580
 H         -3.8681640045       -0.8030610266        0.3952486565
 H         -3.4529261150        0.9089854463        0.3218258331
 H         -3.2902482392        0.0245203665        1.8404829685
 H         -1.4953896415       -1.3715076571        0.8526425616
 H         -1.8025424158        0.3998841878       -1.6139198456
 H         -2.3390523766       -1.2775361032       -1.4965322038
 H         -0.6233709355       -0.8936526445       -1.4087533833
 H         -1.0004439710        0.7971283710        2.0017398838
 H         -0.9543214861        1.6001473430        0.4280671690
 H          1.2911068629        0.8865052319        1.5196536156
 H          0.8758059252       -0.7622944762        1.0113085283
 H          2.5059192381        0.4241177957       -1.9312012750
  20
        -27.10985659
 C         -2.2283679780       -1.0430262980        1.1610602010
 C         -2.0045570002       -0.3191859184       -0.1650021857
 C         -3.2485929089        0.4860738504       -0.5376804177
 C         -0.7917770170        0.6166846921       -0.1029293633
 C          0.5227352932       -0.1251638835        0.0914875321
 O          1.5970916713        0.8297400100       -0.0341593997
 C          2.8076435764        0.3690636521       -0.1939915001
 O          3.1370708736       -0.7896803061       -0.2474008208
 H         -2.3401018237       -0.3250276860        1.9699527773
 H         -1.3985255250       -1.7043508997        1.3936551262
 H         -3.1330634802       -1.6435414968        1.1098844685
 H         -1.8260439100       -1.0665471552       -0.9456816004
 H         -3.4510358763        1.2395955476        0.2195677478
 H         -4.1142278997       -0.1668620243       -0.6121078355
 H         -3.1132452037        0.9858400138       -1.4934466884
 H         -0.9187835302        1.3317207978        0.7108040552
 H         -0.7240472936        1.1799151009       -1.0352422037
 H          0.5951074151       -0.5816105851        1.0819309651
 H          0.6622378107       -0.9064350707       -0.6626720208
 H          3.5156773954        1.2067495639       -0.2814597446
  20
        -27.10974202
 C         -2.6501857034       -0.8792034572        0.9617158644
 C         -1.3598770704       -0.4632020074        0.2563412202
 C         -1.6250257132       -0.2838361498       -1.2382353346
 C         -0.8019068925        0.8269716340        0.8810123063
 C          0.7214507719        0.9050201028        0.8731090814
 O          1.2388202841        0.9559171857       -0.4719469083
 C          1.9924285698       -0.0209383269       -0.8967900387
 O          2.3393278180       -0.9999426583       -0.2845223525
 H         -3.3916242078       -0.0872582331        0.8871766314
 H         -2.4657995916       -1.0854584294        2.0129903231
 H         -3.0588348612       -1.7766314257        0.5039425455
 H         -0.6218975065       -1.2638182903        0.3867457854
 H         -0.7340412917        0.0587217013       -1.7581043106
 H         -2.4150964790        0.4479930418       -1.3926562355
 H         -1.9385563867       -1.2255218325       -1.6831031940
 H         -1.1074588825        0.8882328417        1.9258604296
 H         -1.2072106295        1.6923413832        0.3560619107
 H          1.0576388079        1.8260324652        1.3541582616
 H          1.1603418704        0.0393054569        1.3775821656
 H          2.2908733033        0.1742314463       -1.9386983468
  20
        -27.10973758
 C         -1.3606835815       -1.2683975129        0.8640027098
 C         -1.4400911326       -0.2085415043       -0.2343514703
 C         -2.8928072397       -0.0341184917       -0.6759100576
 C         -0.8650807248        1.1355152421        0.2432313179
 C          0.6285776503        1.2976266178       -0.0199694241
 O          1.4051242077        0.3621353369        0.7555060203
 C          2.1265208604       -0.5298318392        0.1337917925
 O          2.2442892756       -0.6782576082       -1.0568450635
 H         -1.9922826439       -0.9855451272        1.7034506128
 H         -0.3425622441       -1.3865679713        1.2256683085
 H         -1.7018350767       -2.2299872149        0.4872076247
 H         -0.8559700988       -0.5536665268       -1.0958694643
 H         -2.9621532459        0.6605756501       -1.5091467677
 H         -3.4923880993        0.3482624979        0.1467446189
 H         -3.3094901269       -0.9877228724       -0.9903508798
 H         -1.0548765607        1.2562491354        1.3100938581
 H         -1.3601444264        1.9505848295       -0.2854738896
 H          0.8595567360        1.1427860080       -1.0779222372
 H          0.9631879954        2.2892723711        0.2923229113
 H          2.6447144507       -1.1605343130        0.8730319522
  20
        -27.10973332
 C         -2.6111871585       -0.9176426322        0.9673565946
 C         -1.3444218927       -0.4606998758        0.2450945865
 C         -1.6409022965       -0.2610877567       -1.2410889095
 C         -0.8016662326        0.8315027579        0.8797703362
 C          0.7209965434        0.9231654615        0.8714275656
 O          1.2378274069        0.9606511905       -0.4742858994
 C          1.9794891884       -0.0276495290       -0.8937018099
 O          2.3163735506       -1.0061901477       -0.2752337992
 H         -3.3720786957       -0.1422433542        0.9198345360
 H         -2.4018681720       -1.1366726624        2.0113817586
 H         -3.0074293160       -1.8169715093        0.5024227739
 H         -0.5871917466       -1.2472982246        0.3476993790
 H         -2.4529105987        0.4518771772       -1.3676915713
 H         -1.9369916207       -1.2023075674       -1.6986944196
 H         -0.7682814966        0.1154067238       -1.7688666476
 H         -1.1080353014        0.8837330075        1.9248103946
 H         -1.2154229338        1.6958528719        0.3597713701
 H          1.0496642374        1.8530957145        1.3400992020
 H          1.1667939930        0.0674276336        1.3867507178
 H          2.2792462350        0.1572066587       -1.9370316688
  20
        -27.10971751
 C         -1.5331100711       -1.3002862900        0.6937572430
 C         -1.6899476703       -0.1438211596       -0.2913237857
 C         -3.1669167480        0.2273875479       -0.4221467308
 C         -0.8806133312        1.0854396205        0.1463772310
 C          0.6029046394        1.0151337903       -0.1902805166
 O          1.2715706514        0.0733608815        0.6740888556
 C          2.3450126106       -0.5194032836        0.2304964159
 O          2.8625825377       -0.3727645965       -0.8491660864
 H         -0.4888308400       -1.5733459384        0.8148053141
 H         -2.0772929035       -2.1734424608        0.3412966935
 H         -1.9284996214       -1.0199985292        1.6674655146
 H         -1.3268400820       -0.4676930098       -1.2734622808
 H         -3.3057527859        1.0009664244       -1.1731719114
 H         -3.5490839928        0.5939898795        0.5274936457
 H         -3.7508181051       -0.6416740467       -0.7143023807
 H         -0.9903932301        1.2316315017        1.2212722969
 H         -1.2735630754        1.9674621924       -0.3604449589
 H          0.7694157856        0.7098787889       -1.2281206009
 H          1.0761240702        1.9884242470       -0.0306189407
 H          2.7326522420       -1.2065670035        0.9982794094
  20
        -27.10970793
 C         -1.4981056342       -1.2963006587        0.7052567143
 C         -1.6667277919       -0.1503319535       -0.2902354103
 C         -3.1486462968        0.1952835527       -0.4348992792
 C         -0.8818502123        1.0962031276        0.1432778551
 C          0.6051353970        1.0507329650       -0.1839934660
 O          1.2885487874        0.1319036125        0.6933862113
 C          2.3218682630       -0.5168892909        0.2333688488
 O          2.7945111034       -0.4430407801       -0.8739484205
 H         -2.0341997580       -2.1776182211        0.3608030360
 H         -1.8956630771       -1.0110445571        1.6767168974
 H         -0.4513937454       -1.5594900383        0.8284118899
 H         -1.2907951363       -0.4759891843       -1.2669891284
 H         -3.2949649791        0.9582863424       -1.1951816076
 H         -3.5429572612        0.5656293611        0.5082104661
 H         -3.7163574409       -0.6862864323       -0.7214466101
 H         -1.0007228742        1.2482442688        1.2164192336
 H         -1.2874206697        1.9672949101       -0.3723132436
 H          0.7832845720        0.7386863242       -1.2177753969
 H          1.0580811422        2.0341247531       -0.0281343096
 H          2.7236682878       -1.1757343223        1.0185843892
  20
        -27.10969787
 C         -1.3827542516       -1.3004731888        0.6960772173
 C         -1.6080433389       -0.1613026795       -0.2960979500
 C         -3.1053385782        0.1163637201       -0.4292409496
 C         -0.8798585585        1.1213373595        0.1309321840
 C          0.6111004703        1.1408302873       -0.1853813846
 O          1.3415599291        0.2941406280        0.7257596116
 C          2.2574687947       -0.5032968485        0.2507852341
 O          2.5896097098       -0.6325657404       -0.9014344117
 H         -0.3277699421       -1.5439498317        0.7873769861
 H         -1.9088502525       -2.1942280553        0.3683117634
 H         -1.7569504923       -1.0233300797        1.6791762843
 H         -1.2244399753       -0.4696413400       -1.2755583128
 H         -3.2908863354        0.8821948624       -1.1779938508
 H         -3.5115729781        0.4547075716        0.5208092719
 H         -3.6326665585       -0.7866179579       -0.7258450154
 H         -1.0133793559        1.2796022215        1.2015640612
 H         -1.3203595342        1.9679791791       -0.3967663722
 H          0.8106867194        0.8044053573       -1.2071812553
 H          1.0109676731        2.1495211556       -0.0519887919
 H          2.7094533032       -1.0756119334        1.0757550839
  20
        -27.10956868
 C         -2.1376459415       -0.8845132636       -1.0202636898
 C         -1.8456848566        0.0658686893        0.1398452061
 C         -1.2242403171       -0.6968809332        1.3083954497
 C         -0.9885623942        1.2622484683       -0.3020629933
 C          0.4311567413        0.9342122665       -0.7552711927
 O          1.3080900365        0.8252765075        0.3859732691
 C          2.0768921459       -0.2201840326        0.5001271856
 O          2.1587834410       -1.1568122067       -0.2567342953
 H         -2.5590565184       -0.3444080606       -1.8642105949
 H         -2.8492002501       -1.6448927942       -0.7081825874
 H         -1.2330880041       -1.3914870707       -1.3485942626
 H         -2.7999210957        0.4836907533        0.4802767568
 H         -0.3438658329       -1.2513567097        0.9888904171
 H         -1.9374478250       -1.4131106251        1.7096689923
 H         -0.9349297341       -0.0157449487        2.1054327417
 H         -0.9149571924        1.9746748773        0.5212181419
 H         -1.4929203437        1.7566007126       -1.1327870029
 H          0.4823288065        0.0054539058       -1.3273969035
 H          0.8291474690        1.7531555205       -1.3592882233
 H          2.6711531823       -0.1404854060        1.4234494629
  20
        -27.10956288
 C         -1.1951903454       -0.8880319696       -1.2388570653
 C         -1.8214907825        0.1169735803       -0.2736511629
 C         -2.1945731064       -0.5696270460        1.0392742395
 C         -0.9298122612        1.3475194173       -0.0450388888
 C          0.4457711703        1.0757437918        0.5565966817
 O          1.3697420278        0.6524825821       -0.4680268094
 C          2.0681699995       -0.4319689140       -0.2851960360
 O          2.0453072046       -1.1668968117        0.6720289673
 H         -0.3579255255       -1.4057329762       -0.7746525845
 H         -0.8400151678       -0.3914486214       -2.1388867432
 H         -1.9285128325       -1.6380607751       -1.5259259909
 H         -2.7441386486        0.4917668138       -0.7312359527
 H         -2.6106568090        0.1456730739        1.7440995222
 H         -1.3269514767       -1.0423654167        1.4942935948
 H         -2.9355708876       -1.3438582729        0.8565615864
 H         -1.4514945773        2.0273693953        0.6293194555
 H         -0.7795569438        1.8624715680       -0.9952942586
 H          0.8609425487        1.9991534401        0.9676780742
 H          0.4146289461        0.3138120652        1.3382427797
 H          2.7127086600       -0.6061837951       -1.1605877652
  20
        -27.10953017
 C         -1.9473708040       -0.9998208448       -1.0299858247
 C         -1.8248949986        0.0508717336        0.0725320190
 C         -1.2953452332       -0.5873173501        1.3558474200
 C         -0.9903463091        1.2618420733       -0.3741804325
 C          0.4562562245        0.9784229465       -0.7680524348
 O          1.2883890282        0.8377890416        0.4023951055
 C          2.0112066530       -0.2371664114        0.5420188368
 O          2.0834738810       -1.1766155580       -0.2122588809
 H         -2.2781751571       -0.5463182968       -1.9608654675
 H         -2.6696466778       -1.7592273139       -0.7409729581
 H         -0.9956515166       -1.4979142676       -1.2029096806
 H         -2.8285670467        0.4384044438        0.2819089062
 H         -2.0211800056       -1.2963770207        1.7472529508
 H         -1.1070179439        0.1675356746        2.1156971509
 H         -0.3709455501       -1.1305087008        1.1698400725
 H         -0.9793602030        2.0024349808        0.4271640899
 H         -1.4760824000        1.7095209466       -1.2420219644
 H          0.5499586085        0.0765507394       -1.3763717552
 H          0.8627602196        1.8311675444       -1.3170814853
 H          2.5763797607       -0.1799100161        1.4852035865
  20
        -27.10951310
 C         -1.2353739169       -0.8068146343       -1.3156029338
 C         -1.8016425367        0.1086302538       -0.2310264037
 C         -2.0314643720       -0.6778206451        1.0586361009
 C         -0.9375840965        1.3587838963        0.0001372497
 C          0.4609740290        1.1224867608        0.5624908366
 O          1.3616085945        0.6675800142       -0.4688769519
 C          2.0118565721       -0.4482504808       -0.2965398506
 O          1.9617509654       -1.1880387365        0.6557579288
 H         -1.9738643584       -1.5544895642       -1.5956786480
 H         -0.3513767132       -1.3331406739       -0.9612019614
 H         -0.9675489352       -0.2380553034       -2.2029398456
 H         -2.7735607441        0.4764095256       -0.5796708310
 H         -2.3849687443       -0.0242511956        1.8520913978
 H         -1.1156834114       -1.1643103954        1.3882687573
 H         -2.7757087872       -1.4529052302        0.8935237931
 H         -1.4580521454        2.0074546817        0.7058185543
 H         -0.8331722725        1.8986390902       -0.9424081553
 H          0.8779551926        2.0669178697        0.9202353511
 H          0.4606917371        0.3936743976        1.3754935445
 H          2.6453422480       -0.6437393063       -1.1756696054
  20
        -27.10949794
 C         -1.8496934294       -1.0466593900       -1.0315903043
 C         -1.8118051207        0.0416452794        0.0401867258
 C         -1.3336450634       -0.5410778714        1.3695227778
 C         -0.9893948353        1.2625524239       -0.4029597393
 C          0.4691289905        1.0039455155       -0.7689101412
 O          1.2797337856        0.8421447769        0.4135648335
 C          1.9771506468       -0.2486564362        0.5600921673
 O          2.0416091891       -1.1866316021       -0.1966505848
 H         -0.8795255053       -1.5289481806       -1.1332412828
 H         -2.1362324851       -0.6312149708       -1.9944207856
 H         -2.5715076133       -1.8122976655       -0.7582445547
 H         -2.8347604764        0.4072845078        0.1863850348
 H         -2.0646348224       -1.2509191406        1.7498291721
 H         -1.1971119770        0.2429153478        2.1106341532
 H         -0.3912840976       -1.0713939975        1.2483214146
 H         -1.0094451867        2.0116294840        0.3902596117
 H         -1.4648021217        1.6917334105       -1.2858877239
 H          0.5846477340        0.1191612078       -1.3981378813
 H          0.8775955258        1.8752502905       -1.2863427361
 H          2.5290014922       -0.2065895090        1.5120248403
  20
        -27.10947946
 C         -1.2624505924       -0.7608261365       -1.3513156425
 C         -1.7902606364        0.1023990061       -0.2059275594
 C         -1.9398622118       -0.7358345073        1.0627252164
 C         -0.9417954571        1.3630435247        0.0282318479
 C          0.4694088676        1.1454809733        0.5661627538
 O          1.3562137129        0.6756044641       -0.4701810528
 C          1.9816945255       -0.4554244877       -0.3046660206
 O          1.9184067201       -1.1980020519        0.6446054532
 H         -1.0479668210       -0.1542221795       -2.2279491567
 H         -2.0017050733       -1.5105610754       -1.6238798396
 H         -0.3536553782       -1.2841096037       -1.0613227968
 H         -2.7854039121        0.4614735461       -0.4928547708
 H         -2.6789630671       -1.5176637633        0.9063403255
 H         -2.2624408546       -0.1190754222        1.8978107741
 H         -1.0002660142       -1.2179117689        1.3256289092
 H         -1.4595670610        1.9929123056        0.7528390736
 H         -0.8642868789        1.9177079094       -0.9082604039
 H          0.8865316144        2.0998958614        0.8959510853
 H          0.4877001324        0.4337302179        1.3938894228
 H          2.6082898295       -0.6609216625       -1.1865587474
  20
        -27.10906016
 C         -2.2855028856       -1.4547554919       -0.4394287180
 C         -2.1824867298        0.0583074831       -0.2557512604
 C         -2.4755471816        0.4430192904        1.1932142997
 C         -0.8304658053        0.6060935163       -0.7351541788
 C          0.3685154535        0.0904894469        0.0481438596
 O          1.5538062697        0.6659086864       -0.5421216169
 C          2.7107471503        0.2454551177       -0.1092985554
 O          2.9012583727       -0.5836883691        0.7454482294
 H         -3.2993857963       -1.7863888221       -0.2301545233
 H         -1.6152703350       -1.9762016019        0.2390191650
 H         -2.0374404426       -1.7365996065       -1.4596044193
 H         -2.9436342105        0.5263429147       -0.8896490205
 H         -3.4977536599        0.1760878850        1.4493056847
 H         -2.3548732082        1.5133742399        1.3393698478
 H         -1.8108758732       -0.0799424065        1.8759359432
 H         -0.8378615581        1.6948729812       -0.6646975578
 H         -0.6880005789        0.3423266229       -1.7844209516
 H          0.3336562440        0.3923158322        1.0981717659
 H          0.4581366331       -0.9980084302       -0.0001108140
 H          3.5201714064        0.7623960457       -0.6462756917
  20
        -27.10890950
 C         -1.5920251660       -0.8430593408       -1.2416340030
 C         -2.0036725545        0.2524778477       -0.2614584671
 C         -2.5084383161       -0.3571469876        1.0454769834
 C         -0.8751865533        1.2671027122       -0.0216958458
 C          0.4261026071        0.6860301633        0.5148023172
 O          1.1784565769        0.1185567779       -0.5782270369
 C          2.3190186764       -0.4458194561       -0.2979445942
 O          2.8196908203       -0.5546548194        0.7946912191
 H         -0.8241305346       -1.4808154887       -0.8110603348
 H         -1.2008580468       -0.4102471512       -2.1587280263
 H         -2.4486584107       -1.4652462505       -1.4900247217
 H         -2.8312938093        0.8139668039       -0.7092138945
 H         -3.3848656317       -0.9715964390        0.8553256635
 H         -2.7823257195        0.4216870029        1.7527214833
 H         -1.7517312706       -0.9893565897        1.5035745837
 H         -1.2247906533        2.0131866690        0.6924144921
 H         -0.6467192364        1.7752464680       -0.9595929432
 H          1.0422497224        1.4667055427        0.9713896872
 H          0.2599731430       -0.0922546572        1.2638872942
 H          2.7849476734       -0.8271511878       -1.2192226357
  20
        -27.10868419
 C         -1.7721724722       -1.2226979320        1.1230427142
 C         -1.3614676802       -0.3199304529       -0.0390789236
 C         -2.5347946883       -0.1207510287       -0.9968928956
 C         -0.8360567125        1.0363768347        0.4760874337
 C          0.5918519840        1.3300406485        0.0296274482
 O          1.5059278797        0.4279881662        0.6877824866
 C          2.1540229844       -0.4546726103       -0.0201474817
 O          2.1099050681       -0.6142612771       -1.2149633209
 H         -0.9330417348       -1.3856234783        1.7960137911
 H         -2.1060951835       -2.1895499761        0.7536450213
 H         -2.5864145219       -0.7694337781        1.6839042292
 H         -0.5598014223       -0.8244290028       -0.5909225995
 H         -3.3646238567        0.3588247465       -0.4829240630
 H         -2.8767253209       -1.0784994081       -1.3818449162
 H         -2.2396399188        0.4992830946       -1.8398413940
 H         -0.8593367313        1.0556391700        1.5659425923
 H         -1.4676423516        1.8456918234        0.1114247058
 H          0.7051529035        1.2166351597       -1.0520141544
 H          0.8959975854        2.3326816695        0.3361403622
 H          2.7853505657       -1.0640571292        0.6448940037
  20
        -27.10855301
 C         -1.3083298075       -1.5157943245        0.1054231386
 C         -1.7582796985       -0.1239559460       -0.3346913593
 C         -3.1533021676        0.1725062310        0.2126642133
 C         -0.7715776700        0.9513615483        0.1403794609
 C          0.5449707994        0.9508186541       -0.6477445571
 O          1.6767540967        0.9670053355        0.2460062487
 C          2.3785069538       -0.1240112004        0.3950855902
 O          2.2099778224       -1.1828072949       -0.1564705278
 H         -0.2890643957       -1.7275862780       -0.2106707448
 H         -1.9578669165       -2.2772629309       -0.3188713656
 H         -1.3489982121       -1.5977869789        1.1900126477
 H         -1.8010773585       -0.0946380806       -1.4286740459
 H         -3.8547796912       -0.5934509594       -0.1074790049
 H         -3.5102956386        1.1355774427       -0.1429653020
 H         -3.1370256181        0.1896144284        1.2999570471
 H         -0.5437310247        0.7822855167        1.1947812189
 H         -1.2399409720        1.9318386673        0.0601608241
 H          0.6257274940        0.0652992217       -1.2835102045
 H          0.6492429889        1.8490172062       -1.2567702902
 H          3.1877563113        0.0574838004        1.1186259737
