! r2scan-3c def2/J RI DEFGRID2 scfconv6 printgap
%output
    printlevel normal
end
* xyz 0 1
C 4.9482116475 -1.6057069391 -0.747010901
C 4.440544263 -0.5073974052 -1.6574283985
O 3.0440810067 -0.2221275738 -1.4337706609
P 2.5351817246 0.4400638477 -0.0820992884
S 3.7434706749 1.7316687693 0.7577432196
O 2.1989783979 -0.8486890603 0.7978738696
C 2.1349631335 -0.8009275033 2.2311383104
C 0.9838386751 0.049195631 2.7286402526
S 0.6802848378 1.1709852967 -0.7770442977
C 0.0163756743 -0.3735300058 -1.4789456799
S -0.7941154901 -1.4418728497 -0.2631839597
P -2.5055493177 -0.2435954971 -0.0126010325
S -3.251925929 0.6125380266 -1.6178341411
O -1.9920765789 0.7096234832 1.1441646594
C -2.6895646884 1.9192582491 1.5162589201
C -2.0615733509 3.1238760724 0.8438400599
O -3.5460602857 -1.1474407873 0.7828546566
C -4.507177051 -1.9859209032 0.1180853553
C -3.8471872363 -3.1460026001 -0.5988011464
H 5.9648594377 -1.86261813 -1.02764771
H 4.9439218692 -1.2610607878 0.2861781241
H 4.3158732473 -2.4859918221 -0.8277561544
H 4.481182751 -0.7983704328 -2.707946681
H 5.0096184667 0.4148389573 -1.5041550136
H 2.0220983361 -1.8452720115 2.5245368628
H 3.0843758437 -0.4036467048 2.6047677228
H 0.9612274001 0.0261035394 3.8134457723
H 1.1201886348 1.0802327789 2.4004661475
H 0.0363044236 -0.3183599286 2.342482307
H 0.8240372741 -0.9435424876 -1.9270941273
H -0.717767416 -0.0669252108 -2.224880044
H -3.7450694146 1.8260255515 1.2461427259
H -2.5916071488 1.9714648328 2.6016453573
H -2.5510781272 4.0267981481 1.1940859404
H -1.0009862751 3.1739427603 1.0752347247
H -2.1728604937 3.0542935917 -0.2362000402
H -5.1594717614 -2.3261664253 0.9233894636
H -5.0745950758 -1.3699683479 -0.5870331223
H -3.1963043927 -3.6889908529 0.0817477156
H -4.611909934 -3.815367841 -0.9795473983
H -3.2527372451 -2.7774152852 -1.4337661858
*
