! r2scan-3c def2/J RI DEFGRID2 scfconv6 printgap
%output
    printlevel normal
end
%cpcm
    smd true
    smdsolvent "water"
end
* xyz 0 1
C 2.9635371623 -2.7062269099 1.3631037937
C 1.6648893716 -2.2192564567 0.7529018176
O 1.576845367 -0.7861041796 0.8135339578
P 2.2995479101 0.1763599499 -0.239397327
S 3.0140843793 -0.6692581166 -1.8474092018
O 3.4362840384 0.9157013258 0.5747109548
C 3.2620157366 1.4920861424 1.8938681638
C 2.9744608768 2.9771709535 1.8056138466
S 0.7929563929 1.6427466428 -0.5332353806
C -0.0144898814 0.8321124346 -1.9327662258
S -0.6795163609 -0.8069922318 -1.530492037
P -2.1550233503 -0.1512567211 -0.1740970034
S -3.0479968921 1.5475643687 -0.5893394793
O -1.3920895634 -0.2370992037 1.2043542259
C -1.8200148407 0.4809758126 2.3867254147
C -0.606708568 1.1096810997 3.0403451065
O -3.1335101044 -1.3991526356 -0.0617698572
C -4.1620639265 -1.6602095524 -1.0380297713
C -5.2390691127 -2.4926523432 -0.371783366
H 3.0488603603 -2.3730527362 2.3939499289
H 2.9920503177 -3.7906743423 1.3310493838
H 3.8041744505 -2.3126513296 0.7924248161
H 0.7918167533 -2.567789476 1.3074021021
H 1.5853240517 -2.5357615816 -0.2921280253
H 2.4603250392 0.9606586605 2.4103125068
H 4.2145091327 1.3049797183 2.392671793
H 3.763207383 3.476953564 1.2503400571
H 2.0279339787 3.1565298071 1.2993781776
H 2.9252465237 3.3884717741 2.8089470297
H 0.708910134 0.680375126 -2.7332431339
H -0.826466716 1.4887787825 -2.2447694235
H -2.5507332113 1.2422010545 2.0935905166
H -2.2982029508 -0.2493319496 3.0425487143
H -0.9104596717 1.5989516532 3.9600054581
H 0.1290385376 0.3423676184 3.2647560599
H -0.162773594 1.8441481515 2.3727909998
H -4.5582770025 -0.7025916899 -1.3925491156
H -3.7053715743 -2.1926003431 -1.8762572634
H -4.811176017 -3.4155222494 0.0087692117
H -5.6806683896 -1.9414693284 0.4536874756
H -6.0093119024 -2.7258003341 -1.0995332572
*
