! pbe def2-sv(p) def2/J RI DEFGRID1 loosescf d4 GCP(DFT/SV(P)) printgap
%output
    printlevel normal
end
* xyz 0 1
C 2.145755927 -3.5572991282 0.6430305562
C 3.1914522232 -2.5583231757 0.1758976096
O 2.6934405178 -1.7896673166 -0.9363328527
C 2.1599206027 -0.6107924184 -0.7185335836
O 2.0551877028 -0.0748964075 0.3672851454
C 1.7103891091 0.0580038213 -2.0016779122
C 0.4414253515 0.8707907685 -1.7521167352
H 0.2796557979 1.5729458532 -2.5736331532
C 0.5182240714 1.6553793416 -0.4568088137
O -0.3222360352 1.5481639494 0.4216481413
O 1.5022535519 2.5066311801 -0.4546732124
C 1.713178191 3.3095573519 0.7275330277
C 0.8269969398 4.5436461386 0.7173400026
S -1.0540913809 -0.1795075707 -1.7137676388
P -1.684568201 -0.4049794266 0.3019383619
S -0.5754559092 -1.057572532 1.7927544601
O -2.8024941276 0.68570607 0.6091175664
C -2.7783893289 1.5897207601 1.7132556975
O -2.7755946947 -1.5393492926 -0.0668859968
C -2.4028527977 -2.888975309 -0.3413190577
H 1.2840791002 -3.033195573 1.053516877
H 1.8230494379 -4.1782671101 -0.1879293339
H 2.5698835293 -4.185281936 1.4191761692
H 4.076968203 -3.0628516716 -0.2123787163
H 3.4608252943 -1.8734259612 0.984595805
H 1.5439999318 -0.6888310267 -2.7759172374
H 2.5110588277 0.7325242309 -2.3141082902
H 1.5198598956 2.6849245721 1.6038599717
H 2.7690369516 3.5751823783 0.6799465409
H 1.0054228371 5.1254119411 -0.1825934669
H -0.2213009133 4.2563230509 0.7539678237
H 1.0533338154 5.1506105851 1.5875331117
H -2.5466858283 2.5887170038 1.3473115508
H -2.0289457513 1.281880652 2.4447394265
H -3.7720087505 1.5619689525 2.1562166967
H -1.6877975217 -3.2385877315 0.4072543104
H -1.9677992544 -2.9661542629 -1.3383185862
H -3.3225945249 -3.4655289405 -0.2813995479
*
