! pbe def2-sv(p) def2/J RI DEFGRID1 loosescf d4 GCP(DFT/SV(P)) printgap
%output
    printlevel normal
end
* xyz 0 1
C 5.3483754705 -0.1017533678 -2.1793839043
C 4.0135221263 -0.7567142901 -1.8902259139
O 3.334229392 0.0422702076 -0.8976285584
P 1.7895248106 -0.1614354355 -0.6061132129
S 0.6152879688 -0.0693367626 -2.1705116288
O 1.4816264738 0.9629626771 0.4464531412
C 2.376137275 1.4696088053 1.4699231684
C 2.7137645817 0.4274210535 2.5149193506
S 1.7187861904 -2.0525771799 0.3633680018
C -0.0812640103 -2.1986301161 0.4024187327
S -0.8635322127 -1.0297040782 1.5664111225
P -2.0031803889 0.2897313176 0.3543461588
S -1.3560016456 2.1226141975 0.0539071541
O -3.4273577448 0.2944712495 1.0746721603
C -3.7545186572 1.2430382959 2.0998999178
C -2.9855434179 0.9659728883 3.3751986979
O -2.2920435927 -0.6759295827 -0.8662870404
C -3.3705337838 -0.4892229767 -1.8097501002
C -3.1174970315 0.6726825487 -2.7473362494
H 5.196359649 0.9028876507 -2.5642753217
H 5.9405158378 -0.0461613622 -1.2707118756
H 5.8792955174 -0.6916769238 -2.9191287943
H 4.1394097631 -1.7641799013 -1.4853357372
H 3.3849743201 -0.8060197614 -2.7853494017
H 3.2742542004 1.8457565547 0.9776198124
H 1.8075456437 2.2999006137 1.8933035762
H 3.3274724148 -0.3610484407 2.0845130126
H 3.264802618 0.9058944578 3.3185481897
H 1.8045958641 -0.0132431879 2.9189223929
H -0.301951742 -3.2004192991 0.7603220857
H -0.4789280268 -2.02894444 -0.5968734253
H -3.5306127444 2.2476566492 1.7250656246
H -4.829934286 1.1260770525 2.238675453
H -1.9180640481 1.0901178474 3.1886850369
H -3.2941888758 1.6650670362 4.1454395952
H -3.1625700919 -0.0517356255 3.712616475
H -3.3936165505 -1.4361574118 -2.3521598887
H -4.2985474764 -0.354418788 -1.2496830381
H -2.1415484397 0.5647711553 -3.2175350665
H -3.8866264867 0.6919707247 -3.512685181
H -3.1316176367 1.6143693603 -2.2014256238
*
