! pbe def2-sv(p) def2/J RI DEFGRID1 loosescf d4 GCP(DFT/SV(P)) printgap
%output
    printlevel normal
end
* xyz 0 1
C 3.5920775305 -2.1957754531 1.3014028307
C 4.5574594355 -1.1185966684 0.8516574683
O 3.8941188456 0.1260214599 0.558184595
P 2.8514001977 0.2778092498 -0.6325799846
S 3.2798411445 -0.6586604855 -2.2926185578
O 2.8136974311 1.8399451395 -0.8445646622
C 2.5282284854 2.7802234282 0.2250791364
C 1.2446864488 3.5272101212 -0.0764863944
S 0.9840945108 -0.2085458693 0.2754410319
C 0.0413847764 -0.4050315552 -1.269692526
S -1.3213205624 -1.5664145199 -1.0560314957
P -2.4113321046 -0.3622610707 0.3037357239
S -2.3272326583 1.5727727776 -0.0285169498
O -1.8342767433 -0.8350517912 1.695894463
C -1.7823203971 0.0300085486 2.8480610219
C -3.1632396442 0.240692069 3.4320126108
O -3.842310327 -1.0483509405 0.3287814935
C -4.7252987892 -1.117444213 -0.8076660744
C -5.5739839739 0.133555445 -0.9320775862
H 2.9435394541 -2.4843575097 0.4752131872
H 4.1534401514 -3.0663698747 1.625175045
H 2.9767446479 -1.8363973466 2.1226011097
H 5.0993857332 -1.4379238663 -0.0435425859
H 5.2635264795 -0.8540079132 1.6400263072
H 2.4634992276 2.2382576137 1.1712518746
H 3.3837802782 3.4566355624 0.2477263607
H 1.3010113492 3.9816671473 -1.0616124579
H 0.385332378 2.8599630099 -0.0507064834
H 1.1020997178 4.3042572732 0.6675719389
H 0.7018504842 -0.81221808 -2.0373060426
H -0.3646700236 0.5631306906 -1.5675412164
H -1.1182729847 -0.4904624367 3.5384744168
H -1.3355201674 0.9838828091 2.5498516911
H -3.7900793163 0.7597935296 2.707461992
H -3.6208846688 -0.7161767139 3.6678769594
H -3.0897682677 0.8416492379 4.3328122288
H -4.1329886902 -1.2855811253 -1.7119210264
H -5.3423071026 -1.9960135185 -0.6098407285
H -6.2637493758 0.0156262276 -1.7615741513
H -6.1377805722 0.296151388 -0.0175321047
H -4.9468843532 1.0034112053 -1.1147415811
*
