! pbe def2-sv(p) def2/J RI DEFGRID1 loosescf d4 GCP(DFT/SV(P)) printgap
%output
    printlevel normal
end
* xyz 0 1
C 4.5314814987 -3.1069279668 -1.7938829604
C 3.0327362757 -2.9252246954 -1.9762160913
O 2.5796581231 -1.7208899383 -1.3301138355
C 2.2451494023 -1.7783934719 -0.057356373
O 2.2861434751 -2.7790316845 0.6226693336
C 1.8053615878 -0.4273281154 0.478184199
C 1.0606124329 0.395532255 -0.5716005944
H 1.7127573044 0.593979435 -1.4249395787
C 0.5661333247 1.699372853 0.0183523375
O -0.6207888206 1.9604859281 0.1002732377
O 1.5334889444 2.4587668299 0.4343706253
C 1.2038217719 3.7250064417 1.0525864285
C 0.9893058147 4.8006638876 0.0015059722
S -0.382902205 -0.4889370395 -1.2592463665
P -1.8278880594 -0.1656929714 0.247512802
S -1.4390711349 0.0379845359 2.1714184045
O -3.0424362248 0.7187927533 -0.2981262304
C -3.3710793345 2.0473823952 0.1067352586
O -2.4550563567 -1.6167339345 -0.0570171853
C -3.5931854065 -2.101351057 0.6582664369
H 4.8562879064 -3.9816003364 -2.3474777676
H 5.0619102553 -2.2327531915 -2.1607131075
H 4.7647119356 -3.2496362165 -0.7412002206
H 2.484506885 -3.773643024 -1.5574443043
H 2.7708120309 -2.7848543344 -3.0248714396
H 2.6961817533 0.121167129 0.7940958514
H 1.182169051 -0.6046084919 1.3583585568
H 0.3105014163 3.5887795413 1.6676799254
H 2.0673804719 3.9452066169 1.679492026
H 1.8703971349 4.8911073338 -0.6273574681
H 0.1319702379 4.555577146 -0.6208542766
H 0.8040995018 5.7484583975 0.4957423465
H -3.0368691767 2.2216610676 1.1303121209
H -4.4546701882 2.1182899096 0.0409658155
H -2.8943698597 2.7597062111 -0.562894106
H -3.6454603275 -3.1657837144 0.4435424876
H -4.494596021 -1.5947868887 0.3145795412
H -3.4608311682 -1.9368610952 1.7301179905
*
