! pbe def2-sv(p) def2/J RI DEFGRID1 loosescf d4 GCP(DFT/SV(P)) printgap
%output
    printlevel normal
end
* xyz 0 1
C 2.6726970508 0.4160414289 3.619003165
C 1.9409695489 0.3013696141 2.2973988429
O 2.7195183136 -0.5536758193 1.4386435215
P 2.1427846018 -1.1696955701 0.0907934683
S 0.4080523233 -2.0670347771 0.2515031241
O 3.2752962141 -2.1773462124 -0.3223612795
C 4.6974839479 -1.9803192108 -0.1129434501
C 5.2323583186 -0.7773906875 -0.8587814999
S 2.2199085096 0.426427121 -1.3353119235
C 0.4635668909 0.6821812171 -1.6194659012
S -0.3577023867 1.3863023723 -0.1513160711
P -2.3494055983 0.7416795981 -0.5715367804
S -2.5309135587 -0.7372118381 -1.8373484823
O -3.0847906392 2.0215580219 -1.1187094791
C -3.1285701403 3.2899639726 -0.4170710495
C -4.4027793229 3.4169577177 0.3920376075
O -2.975810524 0.5818815357 0.8798615479
C -2.6612233746 -0.5134268379 1.7616191304
C -3.6831076114 -1.6238481708 1.6212129039
H 2.7738626691 -0.5641488412 4.0762569082
H 3.661265109 0.8368293104 3.4615153281
H 2.1080345961 1.063883623 4.2810583681
H 1.8314845706 1.2754093205 1.8114437859
H 0.9482534997 -0.1426370052 2.4237616335
H 4.8723503019 -1.8878248237 0.9600191998
H 5.1307418557 -2.9104679857 -0.4835178573
H 6.3097254895 -0.7333460561 -0.7328856096
H 4.9979941937 -0.8503761224 -1.9176537569
H 4.791942472 0.1380934083 -0.4677892135
H -0.0253709707 -0.2661432746 -1.8585495259
H 0.3883468903 1.3838070923 -2.4468982496
H -2.2423283415 3.3723096993 0.218846182
H -3.0858389934 4.0377309893 -1.210949198
H -4.4324286681 2.661000712 1.1716309444
H -4.4377434954 4.4026934897 0.8452464952
H -5.2669012763 3.2874993308 -0.2536974839
H -1.6584723272 -0.8886548169 1.5401325308
H -2.6796204585 -0.0768939648 2.7618798782
H -4.6834722997 -1.241944935 1.8044424855
H -3.642864134 -2.0414176379 0.6170756362
H -3.4565698532 -2.4092554509 2.334906
*
