! pbe def2-sv(p) def2/J RI DEFGRID1 loosescf d4 GCP(DFT/SV(P)) printgap
%output
    printlevel normal
end
* xyz 0 1
C 4.2833784361 -1.9300570992 1.0761400963
C 2.8092606199 -1.9162518725 0.7244645732
O 2.6111947168 -0.9660107026 -0.3414210496
C 1.49830704 -1.0187538949 -1.036228849
O 0.5952573424 -1.808301105 -0.8301944261
C 1.4604302893 0.0282961592 -2.129515035
C 0.2760104298 0.9774389833 -1.9192820339
H 0.2171417359 1.6767479537 -2.7574299008
C 0.3972651204 1.76250186 -0.6272402479
O -0.5161269008 1.8192003538 0.1782476075
O 1.5529375709 2.3412382933 -0.4993184253
C 1.8545898439 3.0430155851 0.7291153786
C 2.4375240761 2.0817217621 1.7510898489
S -1.3384290303 0.1230109153 -1.8983896466
P -1.6378558661 -0.3595271707 0.1445685103
S -0.4584427045 -0.5888955584 1.7120312634
O -2.9663533054 0.4500088861 0.5462214957
C -3.0304496249 1.564367595 1.4323834497
O -2.333512989 -1.7409834495 -0.2774593492
C -2.8678286866 -2.6479194999 0.6868035672
H 4.5958013033 -0.9465631878 1.4127701587
H 4.4505343417 -2.6478654919 1.8719469504
H 4.8722605951 -2.2116111996 0.2082296111
H 2.1886854374 -1.6096807868 1.5726330421
H 2.4577314614 -2.8944127199 0.3813609571
H 1.3266480114 -0.4811717562 -3.0840930852
H 2.3924094612 0.5924894091 -2.1205544624
H 2.5799881827 3.7997867223 0.4314421434
H 0.9402875038 3.5082829568 1.1047745967
H 2.71877002 2.6309336946 2.6431060571
H 1.7026876223 1.3249831018 2.023308605
H 3.31300207 1.5866556225 1.3402269513
H -2.2634717542 1.4733829077 2.203597674
H -4.0237490508 1.5359348144 1.874580434
H -2.8801218896 2.4857565545 0.8730398456
H -2.161739808 -2.7820955691 1.5096814678
H -3.014028395 -3.5866876915 0.1585127774
H -3.8149288066 -2.2681526247 1.0709308696
*
