! pbe def2-sv(p) def2/J RI DEFGRID1 loosescf d4 GCP(DFT/SV(P)) printgap
%output
    printlevel normal
end
* xyz 0 1
C 4.3340495629 0.6371335106 -2.1259534239
C 4.6204762614 -0.0177125511 -0.7914089921
O 3.6684558311 0.3478553291 0.2256643386
P 2.0927135725 0.2094168782 0.0987450002
S 1.1172455762 1.5751533623 -0.9177810908
O 1.6367401299 0.264988058 1.6073545398
C 2.1766086607 -0.601778892 2.639488033
C 3.209310381 0.1381558531 3.4638611385
S 1.8520745527 -1.8063941218 -0.5463139358
C 0.1091389057 -1.7164167504 -0.996636357
S -0.9554214436 -1.2740813719 0.4131450289
P -2.1424607669 0.2712013539 -0.4491702049
S -2.0248292794 0.4429315327 -2.3949017953
O -1.8899442413 1.6201224794 0.3134398766
C -1.5247886515 1.7900486523 1.703942112
C -2.4441593832 1.052446027 2.6520973737
O -3.6027679549 -0.1067968717 0.0608062422
C -4.3237782189 -1.2220139967 -0.495757334
C -5.7901283769 -1.0482385534 -0.1554283805
H 5.1220739189 0.3872915105 -2.8289960424
H 3.3817308225 0.2859572922 -2.5219199095
H 4.2781589066 1.7177248301 -2.0153655731
H 5.575293354 0.3164130807 -0.3817886911
H 4.6153752885 -1.1069661293 -0.8860433747
H 1.3106942842 -0.8869470927 3.2396864129
H 2.6048918101 -1.4904362549 2.1682950364
H 4.0478599616 0.4338150569 2.8390379929
H 2.7697410714 1.0297646714 3.901994332
H 3.563401441 -0.5139423026 4.2559759753
H -0.1636252416 -2.7106737637 -1.3417255263
H -0.0421283751 -0.9711683584 -1.7833343717
H -0.4862577837 1.4656464487 1.8191158523
H -1.5816276386 2.8712671254 1.8403761125
H -2.3518078002 -0.0233034975 2.5092848847
H -2.168644097 1.2993063474 3.6728051258
H -3.4759007111 1.3445346343 2.4745485249
H -4.1622405956 -1.2362654433 -1.5792028146
H -3.9188290112 -2.1397219724 -0.060059066
H -6.3513433522 -1.8817454625 -0.5645865665
H -5.9212536373 -1.018580313 0.9221705818
H -6.1627210166 -0.1210197606 -0.5817543703
*
