! pbe def2-sv(p) def2/J RI DEFGRID1 loosescf d4 GCP(DFT/SV(P)) printgap
%output
    printlevel normal
end
* xyz 0 1
C 1.4676749296 -1.3071340686 -2.7168372023
C 2.3944918904 -0.1317745735 -2.4887822717
O 2.1266457123 0.5513368068 -1.2404288696
P 2.2977012125 -0.0472823144 0.2059151233
S 2.4785614884 1.38573227 1.5291660803
O 3.5557617467 -0.9960353062 -0.0223956048
C 4.0135479817 -2.0189584115 0.8806072715
C 4.4649200181 -1.4658118185 2.2163791518
S 0.7466805482 -1.4531490595 0.6241229836
C -0.1594372658 -0.5851648052 1.9381594241
S -1.934630217 -0.5048159462 1.6167067884
P -1.8684138673 0.5579965908 -0.2270858252
S -0.5851535109 2.0354493978 -0.3197888185
O -3.3913193361 0.9592393038 -0.4271012761
C -4.0085964477 1.9765678491 0.3878144967
C -5.3002753284 2.3915108198 -0.2868354156
O -1.6380672309 -0.5081934792 -1.3607594168
C -2.471186393 -1.6880835019 -1.5268755265
C -3.5096895413 -1.456746951 -2.6040764093
H 0.432563825 -0.9832466302 -2.6354882389
H 1.6419794764 -1.7083576203 -3.7103022617
H 1.6529516059 -2.0865035232 -1.9791049901
H 2.2395920755 0.6510207125 -3.2333717877
H 3.4403275358 -0.4448353523 -2.4877451046
H 3.2085206638 -2.7471738911 1.0136194027
H 4.8437854986 -2.4788834726 0.3413071035
H 4.8810373541 -2.2697374391 2.8148292806
H 5.2186991992 -0.6957542753 2.0719026865
H 3.6247687249 -1.0222982155 2.7474010906
H 0.2556104506 0.4233822199 2.0308205446
H -0.049531862 -1.1416470086 2.8657070956
H -4.1922200255 1.5536675001 1.3791485851
H -3.3132671731 2.8175113409 0.480197354
H -5.9616095765 1.5353403863 -0.3821677893
H -5.7849760015 3.1544649091 0.3132720391
H -5.0932735431 2.7917446462 -1.2753987604
H -1.771752722 -2.4794848456 -1.8027084043
H -2.9388346025 -1.9277579894 -0.5682990245
H -4.0802175316 -2.3691432186 -2.7461630283
H -4.1812695632 -0.6540225545 -2.3118462141
H -3.0269299506 -1.1860046219 -3.5389703404
*
