! pbe def2-sv(p) def2/J RI DEFGRID1 loosescf d4 GCP(DFT/SV(P)) printgap
%output
    printlevel normal
end
* xyz 0 1
C 1.6405335492 -1.4710848941 -2.3739247346
C 2.9387147421 -0.7787087456 -2.0112468086
O 2.7614172153 0.183256751 -0.9443134452
P 2.6531712615 -0.1152873316 0.5996839232
S 2.9531589938 1.5590530462 1.5724104363
O 3.6910075407 -1.303612314 0.7725845293
C 3.7486783199 -2.196980526 1.9015354785
C 3.8940006299 -1.4660103458 3.2193053533
S 0.775997774 -1.0385791782 1.0371821958
C -0.1724893856 0.4916791832 1.1154376038
S -0.5532104136 1.1621121231 -0.5341254533
P -2.5589042434 0.4374827355 -0.6507257027
S -3.4497397769 0.7982010092 -2.3549918203
O -3.2777417071 0.975178024 0.6570519533
C -4.0306015354 2.1998649674 0.6467863869
C -3.1313501041 3.4170562244 0.5543010228
O -2.4551397744 -1.0677806917 -0.1657863587
C -2.0109173633 -2.1100201376 -1.0589482797
C -3.2001354116 -2.8643280251 -1.6192702405
H 1.3120231059 -2.1210164152 -1.5661812356
H 0.8696065817 -0.7290951087 -2.5729753885
H 1.7955304753 -2.068111654 -3.2671390269
H 3.3062547528 -0.1686695039 -2.838006169
H 3.7025862483 -1.4975932421 -1.7107279643
H 2.8438833858 -2.8106352935 1.8971154754
H 4.6213621363 -2.8179087791 1.6915219958
H 3.0092261368 -0.861857106 3.4144159843
H 4.0138479904 -2.1877781642 4.0207110873
H 4.7587045053 -0.8071069447 3.1951770388
H 0.4250077188 1.2422191462 1.6367011761
H -1.0998086781 0.2781161079 1.6416217521
H -4.7281890936 2.1739507043 -0.1965506949
H -4.5840354278 2.1776250298 1.5866498861
H -2.6113521259 3.4237818808 -0.4035605858
H -3.73439065 4.3160453161 0.6317688414
H -2.3944291325 3.4104886216 1.3538993419
H -1.4172106619 -1.6712052597 -1.8668898301
H -1.3774832761 -2.7541152844 -0.4452461102
H -2.8465767455 -3.6830753347 -2.2373654429
H -3.8068697462 -3.2576459599 -0.8089146542
H -3.81172023 -2.1988534585 -2.2250823477
*
