! pbe def2-sv(p) def2/J RI DEFGRID1 loosescf d4 GCP(DFT/SV(P)) printgap
%output
    printlevel normal
end
* xyz 0 1
C 3.3978159687 0.0993115819 -2.6909882917
C 1.9961768192 0.4806820791 -2.2672565407
O 1.4748510594 -0.4330968627 -1.2875874784
P 2.0231528828 -0.4874984042 0.1993911863
S 2.5878928277 1.2372140156 0.9531579808
O 3.1422978844 -1.606629336 0.0403812651
C 3.7068879496 -2.4026770391 1.0986628012
C 4.2069711519 -1.5771314658 2.2657290452
S 0.4973285801 -1.5258682084 1.2068967395
C -0.4083916464 -0.1470722576 1.9922308635
S -2.1450640094 -0.0920513915 1.5059404569
P -1.8808865773 0.6600836409 -0.4645257711
S -0.5802075271 2.1124371148 -0.6571351208
O -3.3490974448 1.030805066 -0.9427182482
C -3.9436109924 2.3171325456 -0.7006015172
C -4.2167875285 2.5587542387 0.7699761188
O -1.5101172347 -0.5716194339 -1.375651748
C -2.055943736 -1.9128824146 -1.2967712855
C -3.5654147988 -1.9447117034 -1.3877881118
H 3.7279595156 0.76456139 -3.4825752067
H 4.0734872618 0.1923715504 -1.8413588386
H 3.4158507247 -0.9282503206 -3.0440824549
H 1.2825353086 0.4180560104 -3.090519434
H 1.9735558469 1.4930879821 -1.8484668201
H 2.9465976438 -3.1166534502 1.4273545693
H 4.524694694 -2.933641146 0.6079076211
H 4.6958702396 -2.2290105549 2.982502108
H 4.9124152987 -0.822990754 1.9248169087
H 3.375835825 -1.0708064144 2.7544162618
H 0.0887956157 0.7911352373 1.7285613951
H -0.3991441578 -0.3093342445 3.0667977991
H -3.2760659827 3.0877273509 -1.0991172877
H -4.8660962892 2.288638385 -1.2822017802
H -3.2783127756 2.6648514746 1.3117271445
H -4.7895969059 3.4738801571 0.8808617422
H -4.7758433932 1.7285950283 1.1938826072
H -1.5870872006 -2.4163701106 -2.1436363122
H -1.7103812134 -2.369030536 -0.3643919509
H -3.9015370343 -1.4190458229 -2.2776412966
H -3.891402647 -2.9792230918 -1.4356196079
H -4.0069004205 -1.4740189675 -0.5120195344
*
