! pbe def2-sv(p) def2/J RI DEFGRID1 loosescf d4 GCP(DFT/SV(P)) printgap
%output
    printlevel normal
end
* xyz 0 1
C 1.9109501635 3.1020677448 1.3454831485
C 2.4114986035 1.7175518196 1.7052788766
O 2.468255879 0.9306382093 0.4938606845
P 2.1443442036 -0.6151693039 0.4426205285
S 0.6955868278 -1.2366026951 1.6194668251
O 3.5660372474 -1.2412324369 0.7907214343
C 3.7401313885 -2.6197233364 1.1588402377
C 3.4368689876 -3.5591094508 0.0093439547
S 1.9566836793 -0.8481565686 -1.6407108737
C 0.1644887292 -0.6352236163 -1.7745376877
S -0.3930438461 0.9619612937 -1.1072000539
P -2.3291323644 0.3556412228 -0.426639903
S -2.606089205 -1.5621299778 -0.1684323098
O -3.3591375571 0.8915505419 -1.4888875589
C -3.4015024985 2.2645347535 -1.9566104689
C -2.9062863099 2.3407498739 -3.387195602
O -2.5983489793 1.3567378465 0.7799115448
C -1.8641482881 1.3894252094 2.0155383783
C -2.3729748112 0.3531495686 2.9966954335
H 1.8656708711 3.7100283754 2.243038739
H 2.5841233925 3.562372841 0.6286242384
H 0.921637042 3.0393679645 0.8990897116
H 1.7454800258 1.2188024975 2.4187355068
H 3.42069303 1.7508611983 2.1212934975
H 4.7856411557 -2.6792133173 1.4640458013
H 3.0895597674 -2.8338922308 2.0130701349
H 4.0036974514 -3.2721205435 -0.8728802293
H 3.6982872382 -4.5732527333 0.2940901722
H 2.3742967806 -3.52452229 -0.2301294607
H -0.3518978334 -1.4275548554 -1.2235353282
H -0.0621871755 -0.6878657195 -2.8367576071
H -4.4513116292 2.5519131712 -1.8829614069
H -2.8015383352 2.8898771777 -1.2925897587
H -3.0558523607 3.3487102508 -3.7607740522
H -1.847878818 2.0976284553 -3.4380927675
H -3.4598065115 1.6421453562 -4.00837993
H -0.8024225376 1.231009444 1.8081564443
H -2.0207539313 2.4028747652 2.3900172628
H -1.8728414259 0.4868866753 3.9504812792
H -3.4461967807 0.456928832 3.130579445
H -2.1589263625 -0.649395767 2.6302091554
*
