! r2scan-3c def2/J RI DEFGRID2 scfconv6 printgap
%output
    printlevel normal
end
* xyz 0 1
C -1.2333144868 0.9642792965 -1.2561162355
C -1.0116348204 0.1121405312 -0.000645712
C -1.9538034372 -1.0907660247 -0.000484545
C -1.2303287464 0.9619130337 1.2568440527
C 0.4294033955 -0.3782243865 -0.0022454781
O 0.7668782327 -1.5439750382 0.0022996889
O 1.2924828927 0.6302928211 -0.001418525
C 2.6921582593 0.3387919532 0.0010009526
H -0.5551977403 1.8131522256 -1.2627027835
H -1.062869625 0.3721097796 -2.1525305226
H -2.2566036396 1.3291883087 -1.2706511753
H -2.9860410522 -0.7536620592 0.0017865126
H -1.7797066445 -1.7081734145 0.8773462006
H -1.7829756039 -1.7060726428 -0.8804964414
H -1.0504534352 0.3701640744 2.1516882597
H -0.5572679452 1.8147501917 1.2598465245
H -2.2556433669 1.3207217208 1.2784622411
H 3.1581576384 1.046799653 0.6816159473
H 3.0792365311 0.4703878251 -1.0090183568
H 2.8574592969 -0.6876859885 0.3302926522
*
