! r2scan-3c def2/J RI DEFGRID2 scfconv6 printgap
%output
    printlevel normal
end
* xyz 0 1
C 1.9848625767 2.6465923868 -1.4206783769
C 2.9124238231 1.8382028179 -0.5383730489
O 2.2021849422 1.412347255 0.6581203765
P 2.0923854732 -0.1031655918 1.0723090842
S 1.3249454811 -0.3732239089 2.8472477162
O 3.6054997654 -0.5771993181 0.9163193551
C 4.0070396878 -1.9114235144 1.2845929419
C 5.5197574312 -1.9332826451 1.3694059198
S 1.118239507 -1.0927334345 -0.5614975346
C -0.3371916077 -1.7248912788 0.314497788
S -1.4982610341 -0.4375036994 0.8207418702
P -2.1443106911 0.1576565631 -1.1290786566
S -1.9815441889 -1.2080646798 -2.5208231738
O -1.3309251308 1.4671292479 -1.4865456806
C -1.6395596963 2.7968485561 -1.0009551415
C -1.404505874 2.9383945863 0.4888177561
O -3.6072691221 0.7372706236 -0.9003779681
C -4.7805389427 -0.0929664938 -0.9658579168
C -4.8302359824 -1.1143832253 0.1515662878
H 1.1572476931 2.0292619254 -1.7634900436
H 1.5943087217 3.4974702603 -0.8695176051
H 2.5400768222 3.0019511181 -2.2831376905
H 3.7521134767 2.4373666175 -0.1831170718
H 3.2881270026 0.957660147 -1.0636818005
H 3.5476147105 -2.1592935584 2.2472385403
H 3.6386351817 -2.6027435964 0.5210087415
H 5.8463937976 -2.9311026144 1.642997447
H 5.9507503173 -1.663682856 0.4096351688
H 5.859933644 -1.2256206068 2.1200649291
H -0.029400819 -2.2287971141 1.2288435964
H -0.8233195017 -2.4070681052 -0.3824858651
H -0.9697200297 3.4361949284 -1.5778351226
H -2.6769961013 3.0224311841 -1.2531732028
H -0.3997510548 2.6139912339 0.7543037361
H -1.5265594005 3.9797980361 0.7700322452
H -2.1192281993 2.3359807013 1.0466413114
H -5.6047324097 0.6185518033 -0.8975201336
H -4.7956463955 -0.5900898227 -1.9406283516
H -4.6973248191 -0.6311578004 1.1163321635
H -5.7901537518 -1.6202614094 0.1307235287
H -4.0409413345 -1.8523714602 0.0167946211
*
