! pbe def2-sv(p) def2/J RI DEFGRID1 loosescf d4 GCP(DFT/SV(P)) printgap
%output
    printlevel normal
end
* xyz 0 1
C 5.7014266735 -0.2571964418 0.4469652001
C 4.396287972 -0.6419774843 -0.219876118
O 3.3420525932 0.1246862959 0.3945162728
P 1.902964673 0.2401944153 -0.2718447981
S 1.9304186983 0.7131928783 -2.1789799542
O 1.1866642621 1.2274382249 0.7325900588
C 1.2037345002 2.6562041945 0.551274652
C 2.59150595 3.2308266424 0.7334928857
S 1.0654688096 -1.6246413867 0.2174444292
C -0.136897544 -1.8373418986 -1.1383217625
S -1.8370682013 -1.9862405127 -0.5494353378
P -2.0988012561 0.0238726515 0.0898789862
S -1.5197838169 1.3869140134 -1.1890639023
O -1.3790700807 0.1451911076 1.4842967395
C -1.7100556902 -0.7084866034 2.6140535769
C -0.5271475884 -0.7085974611 3.5588097207
O -3.6281267356 0.0972935079 0.5137434442
C -4.7021610524 0.2784179999 -0.4282318397
C -5.1926112572 -1.0458454201 -0.9788737171
H 5.9062636601 0.7980739542 0.2905993781
H 5.6413986231 -0.4501706396 1.5139953421
H 6.5060673978 -0.8454543022 0.0184379178
H 4.1742381022 -1.7034595449 -0.07894734
H 4.4080948201 -0.418998724 -1.2922224425
H 0.8105997636 2.8847853893 -0.4454456914
H 0.5037224517 3.0203717149 1.3049904635
H 3.2441816678 2.8744204507 -0.0626388992
H 2.5391165622 4.3141872275 0.6889000542
H 3.0014521071 2.9227454627 1.6916764841
H 0.0903623374 -2.7719111367 -1.6445171266
H -0.0482254984 -0.9873807317 -1.8209927712
H -2.6050504922 -0.2961446571 3.082914386
H -1.9251693892 -1.7142585783 2.2412574295
H -0.3031644873 0.3056727486 3.8767153759
H -0.7667067573 -1.3151901577 4.426139047
H 0.3492280906 -1.1197388859 3.0637691962
H -5.4802136032 0.7796714879 0.1502380347
H -4.3577653227 0.9408281585 -1.2291169081
H -4.4243055007 -1.5171437136 -1.5872809752
H -5.4522174953 -1.715337068 -0.1637017439
H -6.0704035654 -0.8693475824 -1.5922189512
*
