! pbe def2-sv(p) def2/J RI DEFGRID1 loosescf d4 GCP(DFT/SV(P)) printgap
%output
    printlevel normal
end
* xyz 0 1
C 1.4787069321 -2.8459216682 1.3111884801
C 1.5061260864 -1.4170748438 1.8150203152
O 2.5834114362 -0.6543755267 1.2477442449
P 2.6831268016 -0.1361590425 -0.2562056666
S 2.9268367487 -1.4509671588 -1.6863916715
O 3.9533414199 0.7875270039 -0.1680184182
C 4.3275922471 1.6263323528 0.9522777166
C 3.3141944305 2.7171176061 1.2255094244
S 0.999533213 1.1627880977 -0.5258318905
C 0.0857645459 0.1909523858 -1.7428685913
S -0.8675628726 -1.1620131301 -1.0055200327
P -2.2702794861 0.0719045888 -0.0108940188
S -2.8530532173 1.6879718826 -0.9669995077
O -1.5279763037 0.3638373558 1.3611854196
C -1.7892302977 1.5477607281 2.1393322841
C -3.1440853933 1.4689030028 2.8100911528
O -3.3878683651 -0.9449661522 0.4750175495
C -4.0635067834 -1.9097792392 -0.3514694773
C -4.6569190897 -1.3006101884 -1.6049749042
H 2.4435924885 -3.3197493308 1.4724004962
H 0.7116962167 -3.3971596923 1.8456361588
H 1.2529942279 -2.872888399 0.2468077579
H 1.7054311449 -1.3821253592 2.8881061155
H 0.5587006434 -0.9111459186 1.6051218547
H 4.4635998906 0.9871530737 1.8263683199
H 5.2878050626 2.0399532562 0.6403872739
H 2.3678518884 2.2852384601 1.5470205054
H 3.6916410792 3.3641402839 2.0112642903
H 3.1389081053 3.3067607017 0.3291935256
H 0.7865958315 -0.2672301181 -2.4417338564
H -0.595412893 0.8789629926 -2.2435713886
H -0.9755440167 1.576216846 2.8648854777
H -1.7293217491 2.4199906266 1.4802543215
H -3.2106299367 0.5715926304 3.4192393636
H -3.2930511457 2.345054488 3.4331056921
H -3.9243904658 1.4348346743 2.0503164449
H -3.3496708418 -2.6984650062 -0.6054245078
H -4.8398028134 -2.3096256291 0.3034257299
H -3.8647865186 -0.9309825159 -2.2552150224
H -5.2264910524 -2.0550325881 -2.1381630498
H -5.3102404491 -0.4688694757 -1.351692329
*
