! pbe def2-sv(p) def2/J RI DEFGRID1 loosescf d4 GCP(DFT/SV(P)) printgap
%output
    printlevel normal
end
* xyz 0 1
C 3.9774886618 -2.6398090792 0.8012841358
C 2.4764235421 -2.7270455847 0.5789920709
O 2.0840324856 -2.0013380732 -0.6015651704
C 1.9278570622 -0.7000203109 -0.5225020463
O 2.0630541348 -0.0352015999 0.4852689386
C 1.5703363151 -0.0863697105 -1.8634691406
C 0.3710354226 0.8563123964 -1.7278108021
H 0.3479996244 1.5513650744 -2.5699613574
C 0.4304732221 1.6451934083 -0.4346982627
O -0.3951001493 1.5044430774 0.4535570427
O 1.392108465 2.5157802618 -0.4260453447
C 1.6151771594 3.2687358676 0.786580117
C 2.7279996516 4.2608620724 0.5179760942
S -1.2272848554 -0.0239804991 -1.7982312583
P -1.8495316478 -0.4133818593 0.1926741073
S -0.7205346221 -1.2423245877 1.5761042744
O -2.9039223527 0.6928750872 0.6336238992
C -2.8109857345 1.4922489073 1.8129170839
O -2.9998356603 -1.4567829817 -0.244998926
C -2.6909087882 -2.7830963514 -0.6742187094
H 4.266309467 -1.611406832 1.0055888664
H 4.2463420118 -3.2553645341 1.653121126
H 4.5068768713 -2.9924109212 -0.0796609007
H 1.9242567686 -2.3243375114 1.4339564416
H 2.1597727191 -3.7508189454 0.3807169165
H 1.3562690266 -0.8708053138 -2.5872547286
H 2.4354350012 0.4935074417 -2.1923872667
H 0.6795881658 3.7637635947 1.0634762041
H 1.8793347314 2.552793166 1.5710645528
H 3.6346711427 3.7340261104 0.2377242309
H 2.4447560919 4.9318114794 -0.2872603749
H 2.9139670869 4.8380380005 1.4174030992
H -3.7866436196 1.4487002321 2.293075965
H -2.5648162623 2.5134490007 1.5270547922
H -2.041657431 1.1018110657 2.4815491412
H -3.6295415502 -3.3301010431 -0.6339987677
H -1.9600615465 -3.2333531524 0.0015538193
H -2.2994212343 -2.7692643997 -1.6918006817
*
