! pbe def2-sv(p) def2/J RI DEFGRID1 loosescf d4 GCP(DFT/SV(P)) printgap
%output
    printlevel normal
end
* xyz 0 1
C 5.7591809884 -0.4344785706 -1.24399626
C 4.6841031172 -1.4083520544 -1.680716228
O 3.3612502806 -0.8336062142 -1.6085783559
P 2.682993346 -0.3207901269 -0.2742682944
S 3.1560863123 1.4649975967 0.4021791939
O 3.0321974397 -1.5058234617 0.7322846278
C 2.9494563701 -1.3574188025 2.1585591618
C 1.5207989392 -1.4592759784 2.6510490325
S 0.6837643391 -0.5515835728 -0.934668225
C -0.0465537277 0.9890804818 -0.3015529063
S -1.19772479 0.7338531292 1.0711099924
P -2.9749758623 0.3744557177 -0.055971509
S -2.9188886942 0.9941563253 -1.9225011861
O -4.1433549546 0.9445468413 0.8385784869
C -4.6031597379 2.3035375819 0.7222909083
C -3.5733031686 3.3035889403 1.2091978211
O -3.3570918918 -1.1474979084 0.1503803048
C -2.6422314357 -2.2265418364 -0.4827012045
C -1.7379136653 -2.9223641074 0.5155544117
H 5.6377279483 -0.1866284612 -0.1902094378
H 6.7360890319 -0.8838814354 -1.3920069276
H 5.6945838401 0.4842282767 -1.8225964617
H 4.7011750657 -2.3119414957 -1.067665852
H 4.7876665992 -1.6719772383 -2.7345873716
H 3.5657116056 -2.1693699902 2.5473641243
H 3.3866052906 -0.3921057193 2.4353487636
H 1.0709462905 -2.38758153 2.3086306269
H 1.5122381151 -1.4363526924 3.735890268
H 0.932551091 -0.6190595026 2.2820342866
H -0.5894800109 1.4535494182 -1.126375848
H 0.7575981596 1.6353515629 0.0591621547
H -4.8623596757 2.4955946939 -0.3239838329
H -5.504773242 2.325085954 1.3360138469
H -3.2319091584 3.0386720832 2.2066616918
H -2.7170847742 3.3181911561 0.5360450002
H -4.0178711592 4.2935016146 1.2309290235
H -3.4187843205 -2.9011997509 -0.8489677004
H -2.0705431579 -1.8400508882 -1.3341139788
H -2.3179668803 -3.2503033391 1.37323041
H -1.2772065004 -3.7806209271 0.0373042198
H -0.9584757103 -2.2452168497 0.8542380994
*
