  16
        -17.08751547
 C          2.5517955356       -0.3230447255       -0.0001745707
 C          1.2828061417        0.5216782549        0.0001025584
 C          0.0247203334       -0.3424688628        0.0002817518
 C         -1.2556110470        0.5037545227       -0.0000921190
 N         -2.4944648220       -0.2600764949       -0.0000990544
 H          2.5861754985       -0.9588740246       -0.8820797760
 H          3.4332991558        0.3130624941       -0.0004453406
 H          2.5866434476       -0.9587820302        0.8817775625
 H          1.2746575479        1.1665626575        0.8815443493
 H          1.2743384604        1.1666364839       -0.8812832670
 H          0.0283992937       -0.9879061541       -0.8828735295
 H          0.0282618268       -0.9873745655        0.8838248055
 H         -1.2661675983        1.1477022064       -0.8840903095
 H         -1.2664269080        1.1481269012        0.8835937155
 H         -2.5208365376       -0.8621429702       -0.8166767257
 H         -2.5210309237       -0.8618556662        0.8166834005
