! pbe def2-sv(p) def2/J RI DEFGRID1 loosescf d4 GCP(DFT/SV(P)) printgap
%output
    printlevel normal
end
* xyz 0 1
C 4.4063605415 -1.6819326398 -0.7901715951
C 4.6287140214 -0.1838548219 -0.7569284537
O 3.5987557493 0.5135676391 -0.0340436233
P 2.0859139539 0.5702865744 -0.530434206
S 1.8716405802 0.6883938574 -2.4727360941
O 1.5596919761 1.8432302705 0.2384522532
C 2.0419798444 2.3180774582 1.5181594478
C 1.7273426856 1.3541654995 2.6422044441
S 1.2139495446 -1.1515241107 0.3750812751
C 0.127718873 -1.7319903801 -0.9646447886
S -1.5648267859 -2.0170649063 -0.4103358975
P -2.0170603852 -0.0248182478 0.1891208643
S -1.3570307166 1.4068181825 -0.975888403
O -1.4322660345 0.1599548885 1.6418510205
C -1.7571793989 -0.7304314326 2.7426942574
C -2.7513721038 -0.069522015 3.6746206056
O -3.5774916305 -0.098076046 0.474869892
C -4.5626317707 -0.6451943079 -0.4216056452
C -4.5166137374 -0.0175712085 -1.7985992111
H 4.2455081762 -2.0664378079 0.2136854334
H 3.5365121164 -1.9125584263 -1.4033321352
H 5.2777823918 -2.1602207871 -1.2255698003
H 4.6668210455 0.2194043699 -1.7734902053
H 5.5409057795 0.0764069813 -0.2179792597
H 3.1164164906 2.4941825012 1.4358994189
H 1.5156076298 3.2661379834 1.6415927422
H 2.2691993467 0.4201460217 2.5005432405
H 2.0234477909 1.7997211658 3.5866866189
H 0.6603852216 1.1458258214 2.6591466587
H 0.4905682455 -2.6939514177 -1.3182330659
H 0.1413171959 -0.9861284314 -1.7649377826
H -2.1526314377 -1.6661169968 2.3386051914
H -0.8037906165 -0.9229637827 3.238975114
H -3.6806901133 0.1327001639 3.1485317386
H -2.9478354725 -0.7325242056 4.5111764468
H -2.3504273722 0.8692515107 4.0466222992
H -4.4036362185 -1.725226704 -0.4837049111
H -5.5096441426 -0.4360782515 0.0790542298
H -3.5678324381 -0.2432510936 -2.2840367949
H -5.3262903422 -0.4122602486 -2.4038182997
H -4.612403172 1.0634594356 -1.7271329713
*
