! pbe def2-sv(p) def2/J RI DEFGRID1 loosescf d4 GCP(DFT/SV(P)) printgap
%output
    printlevel normal
end
* xyz 0 1
C -0.6119939424 -0.4416871507 1.2923877982
C 0.6123238315 0.4407196636 1.292946243
Br 1.7891037058 0.0526754217 -0.2372813806
Br -1.789162805 -0.0524942138 -0.2372318782
H -1.2068069109 -0.262837176 2.1880041341
H -0.3540394684 -1.4973652124 1.2157091142
H 0.3544410224 1.4964887829 1.2173884793
H 1.207159393 0.2608772096 2.18834513
*
