! pbe def2-sv(p) def2/J RI DEFGRID1 loosescf d4 GCP(DFT/SV(P)) printgap
%output
    printlevel normal
end
* xyz 0 1
C 5.7613826094 -1.3712701257 -0.7724543528
C 4.8166820317 -0.2032382302 -0.579332735
O 3.5422316806 -0.7297505999 -0.1452068317
P 2.2088454739 0.1007183739 -0.336810215
S 1.9049044927 0.7918175661 -2.1490871147
O 2.3801650197 1.2083041602 0.7946520591
C 1.6841997324 2.4641226186 0.8409138662
C 2.63685071 3.5145138559 1.3747144536
S 0.9011875734 -1.3483829319 0.4394235181
C -0.1794785481 -1.6292342137 -1.0145665208
S -1.8978379879 -1.8415957341 -0.5214288809
P -2.1921485214 0.08529786 0.3403424282
S -1.3096947818 1.5826562919 -0.5646943851
O -1.7298161555 -0.0072443883 1.8437238112
C -1.8679771264 -1.1484901312 2.7269671883
C -3.2922682216 -1.6488597704 2.8228133059
O -3.7683808504 0.225226961 0.4641507446
C -4.5927781576 0.74807995 -0.5917657613
C -4.6136881153 -0.1541287599 -1.8086388251
H 5.8566235552 -1.9265115563 0.1559986902
H 5.3799672807 -2.0359767829 -1.542286583
H 6.7347441436 -0.9963971789 -1.0716539676
H 4.6646831975 0.349920132 -1.5127709546
H 5.1772437201 0.4829443032 0.1906142746
H 1.331687833 2.715720423 -0.1652931338
H 0.8150871354 2.3404352987 1.4927646809
H 3.4764377785 3.637673192 0.695699768
H 2.1078752083 4.4576388347 1.4635029086
H 3.0088261912 3.2145688698 2.3502294765
H 0.1164581644 -2.5520547545 -1.5066681603
H -0.0814109975 -0.7711099959 -1.6858019323
H -1.1939260447 -1.9329738932 2.3701931372
H -1.5083550026 -0.7641590988 3.6825286674
H -3.3393506186 -2.4350874738 3.5699013157
H -3.9576356828 -0.8386572641 3.1090478403
H -3.6165741924 -2.0501145632 1.8648676767
H -5.5791582966 0.8284064736 -0.1329312279
H -4.2242360821 1.7438417358 -0.8578485243
H -4.8634459725 -1.1723828662 -1.5222252385
H -5.3514755901 0.2144280912 -2.5141372057
H -3.6373678248 -0.1536949541 -2.2908739179
*
