! pbe def2-sv(p) def2/J RI DEFGRID1 loosescf d4 GCP(DFT/SV(P)) printgap
%output
    printlevel normal
end
* xyz 0 1
C 1.3399895834 2.0025560071 2.0346264904
C 2.1006608808 0.8563689182 2.6670677628
O 1.983042159 -0.3738817258 1.9124654558
P 2.5400501115 -0.6491334546 0.4633624331
S 2.7676109665 -2.5825820683 0.2367135795
O 3.8261875865 0.2801676489 0.4305714544
C 4.5333395998 0.6798472476 -0.7588301014
C 4.9907989924 -0.4974006573 -1.5934981556
S 1.2442716452 0.2420764869 -0.9882867999
C 0.1185245529 -1.1579355754 -1.1284561532
S -0.9790200841 -1.3173950636 0.3056108611
P -2.29493741 0.2467364705 -0.2513922326
S -2.7218825051 0.3420506965 -2.1671381157
O -1.5706777419 1.5184735349 0.3448346293
C -1.7673854275 2.8374355324 -0.2103583746
C -3.1481087783 3.3654079358 0.1143418863
O -3.5013761353 0.0737589672 0.7663728747
C -4.4386441146 -1.0182584708 0.6888574566
C -5.6356875757 -0.6506374885 -0.1669446824
H 1.3829431185 2.8621890858 2.6963614232
H 1.7811837458 2.268867459 1.07576305
H 0.3007197006 1.7227610141 1.8782248731
H 1.6855472614 0.5887608304 3.6401439956
H 3.1611377461 1.0947668438 2.7666962629
H 3.8791597497 1.3345560791 -1.3411705617
H 5.3811257314 1.2482255107 -0.3720864488
H 5.5790419366 -1.1851149802 -0.9906274938
H 4.1305791224 -1.03717081 -1.9866570429
H 5.5928020675 -0.1392333814 -2.4223366338
H 0.699401717 -2.0799887438 -1.1849168568
H -0.48078905 -1.0039401103 -2.0269269586
H -0.9802307327 3.4379356321 0.2465619969
H -1.6146049728 2.7851679668 -1.2928886873
H -3.3160053543 3.3455681808 1.1877584427
H -3.2418419188 4.3833771097 -0.2502859023
H -3.9002465736 2.7436571934 -0.3702019825
H -3.9301206052 -1.9038410023 0.2962954785
H -4.7315362685 -1.1990434906 1.7248563652
H -6.1157760411 0.2413992972 0.2256310712
H -5.324342828 -0.4604030987 -1.1917431656
H -6.3448684799 -1.4720419219 -0.1605589573
*
