  23
        -23.15848264
 C         -3.2951888347        0.4275444976        0.0439305947
 C         -1.9968535468       -0.2484981644       -0.3823995132
 C         -0.7845152564        0.4008687025        0.2829570600
 C          0.5642302714       -0.1444449121       -0.2052673526
 H          0.5747439959       -0.1027463966       -1.3009380015
 C          0.7623454703       -1.5951506825        0.2286304988
 C          1.6973626189        0.7485571106        0.3188287284
 C          3.0569806353        0.4429567233       -0.3005353248
 H         -4.1487186607       -0.0482271632       -0.4329226907
 H         -3.2877993317        1.4791402252       -0.2343541348
 H         -3.4219128281        0.3604436011        1.1221651689
 H         -2.0463843066       -1.3059598930       -0.1191482235
 H         -1.8914513667       -0.1789885040       -1.4676267491
 H         -0.8199606386        1.4746842437        0.0808276480
 H         -0.8528975863        0.2692610733        1.3655269888
 H         -0.0288029266       -2.2271985198       -0.1648200158
 H          1.7087943985       -1.9818138448       -0.1384415240
 H          0.7560816177       -1.6678234547        1.3143008959
 H          1.7605855408        0.6441140131        1.4043787861
 H          1.4466333896        1.7900917878        0.1030544509
 H          3.4088110564       -0.5445770683       -0.0151886216
 H          3.7916127190        1.1715853632        0.0341836648
 H          2.9986912484        0.4886619540       -1.3858859121
