! pbe def2-sv(p) def2/J RI DEFGRID1 loosescf d4 GCP(DFT/SV(P)) printgap
%output
    printlevel normal
end
* xyz 0 1
C 5.3630588459 -1.6979023671 -0.3452891442
C 4.1795172138 -2.3185073388 0.3796954016
O 2.9719345312 -2.1814652583 -0.3972686014
C 2.2683177394 -1.0796767197 -0.2784641577
O 2.5571899114 -0.1479711177 0.4473784347
C 1.0178378742 -1.1209123972 -1.1232871117
C 0.4344678186 0.2772633063 -1.311653372
H 0.8598763372 0.7792961305 -2.1819212122
C 0.6211051525 1.1646184018 -0.0930564869
O -0.0259133858 1.002827549 0.9273482663
O 1.4006467222 2.1814880449 -0.3351518507
C 1.6723000072 3.1049463512 0.7396650457
C 2.1900279539 4.3943332093 0.1336267328
S -1.3630822892 0.2202062013 -1.5887000109
P -2.1378469296 -0.2955410557 0.3381289749
S -1.3147737608 -1.7058588123 1.4278736639
O -2.5928845219 1.0163139832 1.1015153211
C -3.5232628229 1.9520966918 0.5232413192
O -3.5904797169 -0.7691646243 -0.1755416932
C -3.7834155453 -2.0162320204 -0.846647911
H 5.4709511196 -2.1411021429 -1.3311756087
H 5.2168222469 -0.6253144893 -0.4505968822
H 6.2664218079 -1.8755110601 0.2286766605
H 4.0239032981 -1.8441340225 1.3528147333
H 4.30272424 -3.3949130714 0.4982050163
H 0.3161087574 -1.7547988451 -0.5664924377
H 1.2175793657 -1.6010758492 -2.079692599
H 0.7497600977 3.252804598 1.3099957265
H 2.4127515815 2.6307135418 1.3907950621
H 2.4239732106 5.0924904782 0.9302717194
H 3.0867115479 4.1958926072 -0.4451351913
H 1.4392049468 4.8316668473 -0.5177534655
H -3.4728078505 2.8311872115 1.1608469889
H -4.52408744 1.5242475347 0.5281828645
H -3.2292182756 2.1963452371 -0.4981999032
H -3.4220641514 -1.9444425284 -1.8720719866
H -4.8551551479 -2.1964601956 -0.828894005
H -3.2547147601 -2.8106882666 -0.316802815
*
