! pbe def2-sv(p) def2/J RI DEFGRID1 loosescf d4 GCP(DFT/SV(P)) printgap
%output
    printlevel normal
end
* xyz 0 1
C 1.4352629671 -1.6158801324 2.7076001693
C 2.9072307771 -1.3608995789 2.4549755759
O 3.1286063684 -0.1178627209 1.7626846061
P 2.9234213577 0.0360185298 0.2008196394
S 3.312700089 -1.560327776 -0.8770091894
O 3.9100753019 1.2619843801 0.023574842
C 4.4668156148 1.6237349581 -1.2525048784
C 3.4191780582 2.1291483326 -2.2247851469
S 0.988177323 0.9040881332 -0.0622935097
C 0.1783974496 -0.4198186738 -1.0082278723
S -1.1328057444 -1.2364351778 -0.0788722765
P -2.6143262931 0.2653234991 -0.406917088
S -2.6517855468 0.9135889796 -2.254933102
O -2.4022581529 1.4536633814 0.6007562708
C -2.7046864878 1.4503688132 2.018954633
C -1.6764087313 0.675509426 2.8160171714
O -3.9400482378 -0.4199492083 0.1300840545
C -4.5445097695 -1.5227887854 -0.5791611951
C -5.9422660337 -1.7160356296 -0.0278438428
H 0.99323808 -0.7743784809 3.2336295633
H 0.907563851 -1.7637154615 1.7657347112
H 1.3266898446 -2.5118178123 3.310197932
H 3.3472235511 -2.1732421916 1.866950798
H 3.4586064208 -1.2422308257 3.3888322903
H 5.1925692402 2.4005150522 -1.0076112739
H 4.9832328163 0.7512248479 -1.6654973476
H 2.7526250593 1.3177810029 -2.5157223842
H 2.8300146832 2.9219543854 -1.7700764293
H 3.9107080699 2.5117385986 -3.1137071531
H 0.9224726293 -1.1757893791 -1.2708058651
H -0.2647536573 0.0250016858 -1.9010068465
H -2.6915437763 2.5109877904 2.2750763593
H -3.7071662248 1.0438485913 2.1593978159
H -1.8607573537 0.8298585947 3.8746944577
H -1.7411370329 -0.3875749646 2.5953612727
H -0.6776897807 1.0302809554 2.5704638819
H -4.5615200206 -1.2818758573 -1.6469634472
H -3.9245695591 -2.4093096199 -0.4220717174
H -5.896587294 -1.9358217661 1.0346559654
H -6.5308564331 -0.8152348002 -0.1780448326
H -6.4165934122 -2.5432110744 -0.5454669951
*
