! pbe def2-sv(p) def2/J RI DEFGRID1 loosescf d4 GCP(DFT/SV(P)) printgap
%output
    printlevel normal
end
* xyz 0 1
C 4.3844442279 -2.327109423 -0.6267554526
C 4.5282799358 -0.8958680023 -0.1489322037
O 3.776801477 -0.002055241 -1.0136469421
P 2.4388398315 0.7045660098 -0.5792762168
S 1.7453510008 1.7858190602 -2.0557827601
O 2.9025347322 1.4746646924 0.7291087517
C 2.0006027598 2.1560402291 1.626557976
C 1.8925701547 1.3811585099 2.925560675
S 1.1528629798 -0.8247711271 0.1502863303
C 0.1323220234 -1.0274883628 -1.3466298536
S -1.4802862345 -1.7237020371 -0.9623858847
P -2.4013262195 -0.0543492461 0.0124715638
S -1.3878551981 1.6236968209 0.0182954618
O -2.8261545598 -0.620627019 1.4344512402
C -1.8796132911 -0.9420933854 2.4730394946
C -1.6954147113 0.2317580671 3.4148641533
O -3.7871756178 0.1505480587 -0.6978947201
C -4.655516569 -0.8799349527 -1.2342721222
C -4.9334759688 -1.9976999231 -0.2537208781
H 5.0452730772 -2.9616145623 -0.0448254039
H 3.3611913892 -2.6719368906 -0.5001515865
H 4.6545501914 -2.3963665008 -1.6768903109
H 5.5605484702 -0.5517975603 -0.2257283407
H 4.1776039669 -0.7804865851 0.8784967913
H 2.4418186738 3.1418445075 1.7845626071
H 1.0251896434 2.2764658054 1.1456923579
H 1.465807917 0.3975482775 2.7432126173
H 2.8769283146 1.2652854947 3.3700351262
H 1.2512924434 1.9273375818 3.609471948
H 0.6128598927 -1.7309897617 -2.022517092
H 0.0221202306 -0.0441655755 -1.8121657922
H -2.3185873029 -1.7987482032 2.9878565219
H -0.9275160208 -1.2372716874 2.020494623
H -1.2915995858 1.0848138692 2.8743527346
H -2.650783619 0.5161671491 3.8467480048
H -1.009695074 -0.0477336838 4.2079545276
H -5.5626716197 -0.3285700954 -1.4866390792
H -4.1919607058 -1.2673400136 -2.1449459587
H -5.6720698072 -2.6667837366 -0.6845357112
H -4.0225390511 -2.559360616 -0.0548454235
H -5.3140967034 -1.5936940813 0.6804829473
*
