! wb97x-v def2-tzvp def2/J RIJCOSX DEFGRID2 scfconv7 GCP(DFT/TZ) printgap
%output
    printlevel normal
end
* xyz 0 1
C -1.1843504068397166 1.2921492605265474 -1.003292717132063
C -0.9972652354054501 0.1674132704504805 0.015924081066826287
C -1.7356179029558874 -1.0966262199107153 -0.45900817381570735
C -1.5451616602453604 0.6047149360939985 1.3843844308926299
C 0.46234475324476215 -0.221523816157651 0.21405260352491062
O 0.8343313047664406 -1.062093796953764 1.0189883040229697
O 1.3141056129451327 0.438774687300863 -0.5865583512281798
C 2.716638688536285 0.09010935961807978 -0.4452901830092144
H -0.8195806576196765 1.0049467684543902 -1.9933313518560773
H -2.252333582957101 1.5172425952812627 -1.0873806860906876
H -0.6688135804257129 2.2058000650513643 -0.6935947116168237
H -1.637085584633803 -1.9072853983640252 0.26819333608563173
H -1.3467307598188487 -1.4405856422814598 -1.423129284229984
H -2.798612208104006 -0.8654293106751393 -0.5796018276966731
H -1.4576676073002899 -0.19853952041678688 2.120860711853153
H -1.0093205156790086 1.483189346623196 1.7585453158043676
H -2.6029401643860064 0.8653299946000733 1.2802135486140998
H 2.8652648348385195 -0.9686707820962814 -0.6700978479669483
H 3.059141047785704 0.31156601808559764 0.5683200183201295
H 3.241269902873225 0.7119751903866957 -1.1698138384185415
*
