! pbe def2-sv(p) def2/J RI DEFGRID1 loosescf d4 GCP(DFT/SV(P)) printgap
%output
    printlevel normal
end
* xyz 0 1
C 3.3251998786 -1.5194048052 -2.8390516811
C 4.1043188616 -1.2280189459 -1.5744071038
O 3.557071848 -0.1304846797 -0.8175875751
P 2.0371034392 0.0097607134 -0.378959949
S 0.7885760547 0.6701279331 -1.7317439234
O 2.1092449473 1.0427161876 0.8061098321
C 2.9756078004 0.9118360271 1.9596222302
C 4.2247426733 1.7501836281 1.7835919788
S 1.6659345042 -1.8975907129 0.4977900998
C 0.0422955302 -1.595024753 1.2342678518
S -1.3262901725 -1.543725038 0.0352002421
P -2.0384759771 0.442306465 0.3566777191
S -1.0226171138 1.5204401287 1.6325738152
O -3.5536429858 0.1873085013 0.7930081392
C -3.8807293159 -0.4000006428 2.067366259
C -5.3678039418 -0.2196538041 2.2951416528
O -2.2521834056 1.1265186755 -1.0355552679
C -2.9526741462 0.4816854624 -2.133594682
C -2.5352780586 1.1726232965 -3.4133817759
H 3.2501988938 -0.6252246432 -3.4536233167
H 3.8267108362 -2.3018996167 -3.3992352945
H 2.3170399534 -1.8497499081 -2.5914377692
H 5.1214848398 -0.9022184507 -1.7990522519
H 4.1290471336 -2.1069300898 -0.9243711197
H 2.3681369303 1.2689084584 2.7943386888
H 3.2237936917 -0.1438137286 2.102433814
H 3.9529383036 2.7882533629 1.612193584
H 4.8281876847 1.680532171 2.6831473911
H 4.8002832305 1.3944620638 0.9329907575
H 0.0528542803 -0.6470811684 1.7809740504
H -0.1327548538 -2.4375942042 1.8981283921
H -3.6073597487 -1.4587854617 2.0347321274
H -3.2912455675 0.1018241743 2.8419852542
H -5.6370638486 -0.6585491137 3.2501018742
H -5.617443752 0.8376086322 2.3022353125
H -5.9269070955 -0.7082272173 1.5026011027
H -2.6775464908 -0.5770217298 -2.1476060237
H -4.0232116709 0.5801556884 -1.9438409465
H -2.8032912089 2.2243799914 -3.3751667328
H -1.4573673657 1.0930847055 -3.5363235656
H -3.0323332473 0.6992456116 -4.2535658572
*
