! pbe def2-sv(p) def2/J RI DEFGRID1 loosescf d4 GCP(DFT/SV(P)) printgap
%output
    printlevel normal
end
* xyz 0 1
C 3.3552036415 1.778591427 -1.8628528924
C 2.0999667826 0.9515527183 -2.0416544991
O 2.1708292446 -0.2783342984 -1.2985042157
P 2.1768390578 -0.3403508782 0.2852530741
S 1.1539241674 1.0940952094 1.1624661703
O 3.7355473252 -0.3875526646 0.5794201314
C 4.3537001975 -0.9306202332 1.7610733543
C 3.7602658308 -0.385711518 3.0435218668
S 1.5437245493 -2.319668228 0.623075296
C -0.2398585265 -2.0311658366 0.6288726295
S -0.8751823763 -1.4615532151 -0.9875815553
P -2.0039900997 0.2228758527 -0.3899383433
S -2.4468182023 0.3320355611 1.5197798994
O -3.2305681127 0.158570917 -1.4021722801
C -4.2572438426 -0.8480569512 -1.3232513795
C -5.4215865487 -0.3793769324 -0.4716453742
O -1.2049134632 1.4344102869 -1.0225864156
C -1.3662969611 2.7826472688 -0.5350846733
C -2.7631708059 3.3065053158 -0.7861408757
H 4.2294095329 1.1949578929 -2.1386348355
H 3.2980826947 2.666288924 -2.484915895
H 3.4489278689 2.0779557035 -0.819037099
H 1.9659955962 0.6248423655 -3.0738637436
H 1.2146064038 1.5060882278 -1.7143686297
H 4.2579896198 -2.0191431069 1.7221357038
H 5.4020144571 -0.6459216608 1.6544187564
H 4.3188537644 -0.7700581981 3.890855074
H 3.79880446 0.701228466 3.0501733729
H 2.7193153292 -0.6934742756 3.1373325809
H -0.5005618345 -1.2844457583 1.3848527965
H -0.692869442 -2.9924867278 0.8575142174
H -4.5618856734 -1.0065066975 -2.3595253166
H -3.8264754377 -1.7719630607 -0.9259701043
H -6.1964431348 -1.1390668465 -0.4777333044
H -5.0968844582 -0.2124423316 0.5529856148
H -5.8249046172 0.5484161659 -0.8677108923
H -1.1239329958 2.7941556831 0.5330791408
H -0.6130175057 3.3518932642 -1.0819072667
H -3.4811473286 2.7322112525 -0.2016209952
H -2.8153330415 4.3482884089 -0.4859886686
H -3.0130998768 3.2155217198 -1.8399788697
*
