  19
  -21.1031909200000       0.158445341075748      !gc
 C          2.4972036449        0.0479956605        0.0430702095
 C          0.9986568425        0.0755149152        0.0102890550
 C          0.3059165116        1.2019044592       -0.0814942756
 C         -1.1910267675        1.2757747249       -0.1073864621
 C         -1.8251622735       -0.0332769168        0.3542884982
 C         -1.1335887925       -1.2053923249       -0.3320818438
 C          0.3268985963       -1.2677139649        0.1057420016
 H          2.8440135034       -0.4720132418        0.9353231491
 H          2.9072135318        1.0543295300        0.0413773594
 H          2.8835605479       -0.4878427982       -0.8234679968
 H          0.8225905023        2.1501738187       -0.1581750687
 H         -1.5255782147        2.1016342569        0.5257511568
 H         -1.5153586203        1.5039457444       -1.1288248347
 H         -1.7091829682       -0.1324162606        1.4356061529
 H         -2.8928025773       -0.0320071298        0.1272845202
 H         -1.6363229824       -2.1427083652       -0.0866458752
 H         -1.1838757003       -1.0671828193       -1.4141728006
 H          0.3850839422       -1.6154542796        1.1425843297
 H          0.8721313870       -1.9902545788       -0.5063959127
  19
  -21.1031909100000       0.158443664424055      !gc
 C          2.4972142941        0.0479378570        0.0428860687
 C          0.9986765057        0.0755615079        0.0103882218
 C          0.3059275965        1.2019831220       -0.0810658286
 C         -1.1910111974        1.2757278721       -0.1076168517
 C         -1.8252761355       -0.0332068876        0.3541844721
 C         -1.1336018816       -1.2054713957       -0.3318683598
 C          0.3269809505       -1.2676949410        0.1056741539
 H          2.9073124031        1.0543964364        0.0417301475
 H          2.8832514373       -0.4872514292       -0.8242674246
 H          2.8442384656       -0.4726905551        0.9346544903
 H          0.8225968799        2.1502776746       -0.1576708147
 H         -1.5260723215        2.1018680028        0.5248926622
 H         -1.5148196731        1.5032969770       -1.1293661630
 H         -1.7095059066       -0.1321045966        1.4355400533
 H         -2.8928737994       -0.0319241717        0.1269506222
 H         -1.6362419039       -2.1427518902       -0.0860615865
 H         -1.1840400337       -1.0676398522       -1.4140070231
 H          0.3852879163       -1.6154376488        1.1425082670
 H          0.8721914700       -1.9901995043       -0.5065025145
  19
  -21.1031908900000       0.158440311174490      !mtd5
 C          2.4971544565        0.0482927428       -0.0478674180
 C          0.9986784455        0.0755919091       -0.0121980826
 C          0.3061501626        1.2012415480        0.0895867020
 C         -1.1907255201        1.2748987640        0.1197847816
 C         -1.8262719555       -0.0306275452       -0.3498702790
 C         -1.1326420886       -1.2078745505        0.3255719934
 C          0.3266044712       -1.2668111857       -0.1168258848
 H          2.8849304165       -0.4942083590        0.8138129325
 H          2.9072474756        1.0546701653       -0.0390705161
 H          2.8423290636       -0.4646594766       -0.9446418084
 H          0.8230127601        2.1489010437        0.1725259048
 H         -1.5122997467        1.4954907443        1.1437657249
 H         -1.5269462924        2.1054425651       -0.5062787366
 H         -2.8932355604       -0.0310319183       -0.1196357152
 H         -1.7135508467       -0.1216508726       -1.4322456849
 H         -1.1798548012       -1.0779424082        1.4088271553
 H         -1.6360473106       -2.1433104331        0.0744112212
 H          0.8735004096       -1.9944541561        0.4877215313
 H          0.3817884427       -1.6059124539       -1.1566934973
  19
  -21.1031908000000       0.158425222428154      !md7
 C          2.4972222633        0.0480679455        0.0431955647
 C          0.9986768306        0.0754878652        0.0101762178
 C          0.3059324629        1.2018677286       -0.0815940186
 C         -1.1910065951        1.2757710905       -0.1073475187
 C         -1.8251324955       -0.0332726530        0.3543261939
 C         -1.1336668623       -1.2054286269       -0.3320819798
 C          0.3268713002       -1.2677286255        0.1056703242
 H          2.8837899906       -0.4901381801       -0.8218251772
 H          2.8437310149       -0.4695127908        0.9369256967
 H          2.9072913250        1.0545661031        0.0391093348
 H          0.8226367729        2.1501352605       -0.1582684985
 H         -1.5254534337        2.1015901497        0.5258232632
 H         -1.5154616134        1.5040353560       -1.1286787575
 H         -1.7090247571       -0.1323906701        1.4356138710
 H         -2.8927863370       -0.0319692382        0.1274795150
 H         -1.6364688284       -2.1427451261       -0.0867211311
 H         -1.1839912254       -1.0670938111       -1.4141709733
 H          0.3851478205       -1.6155335584        1.1425029442
 H          0.8720718432       -1.9902411486       -0.5065639683
  19
  -21.1031907500000       0.158416840412147      !mtd6
 C          2.4970800173        0.0483693859       -0.0487942406
 C          0.9986392484        0.0755898518       -0.0118695444
 C          0.3060918586        1.2012043077        0.0902823980
 C         -1.1908168905        1.2747661787        0.1199983198
 C         -1.8259347122       -0.0305268785       -0.3507919087
 C         -1.1329017613       -1.2077255943        0.3253739605
 C          0.3267395120       -1.2669495076       -0.1157510820
 H          2.9071445787        1.0548486832       -0.0397763280
 H          2.8413961080       -0.4639795084       -0.9464435533
 H          2.8858687002       -0.4948598603        0.8121262847
 H          0.8229288419        2.1488631311        0.1733386593
 H         -1.5131471314        1.4947696627        1.1438408619
 H         -1.5267233660        2.1055611879       -0.5059020437
 H         -2.8932214325       -0.0310421894       -0.1220146868
 H         -1.7116952350       -0.1211521919       -1.4330502780
 H         -1.1810795345       -1.0777460984        1.4086074894
 H         -1.6361752814       -2.1431198315        0.0738093076
 H          0.8732761917       -1.9939020683        0.4900217750
 H          0.3829057464       -1.6070978766       -1.1552299340
  19
  -21.1031907400000       0.158415164062044      !md2
 C          2.4970608581        0.0484043686       -0.0486764381
 C          0.9986023777        0.0756294597       -0.0119204259
 C          0.3060923954        1.2013057071        0.0900227160
 C         -1.1907903243        1.2749200455        0.1202220364
 C         -1.8257722268       -0.0304239997       -0.3506574199
 C         -1.1330713260       -1.2080927690        0.3250260547
 C          0.3267568798       -1.2669351777       -0.1155517784
 H          2.8417951681       -0.4662135363       -0.9448654108
 H          2.8857018626       -0.4927782202        0.8136029527
 H          2.9069972194        1.0549207201       -0.0419887454
 H          0.8230196750        2.1490213618        0.1720110494
 H         -1.5128622919        1.4945932988        1.1442941248
 H         -1.5268168503        2.1057878938       -0.5055284152
 H         -2.8930014399       -0.0309121484       -0.1217649670
 H         -1.7117339347       -0.1208253337       -1.4329265909
 H         -1.1818795215       -1.0789190410        1.4083134985
 H         -1.6361689483       -2.1433505027        0.0725756561
 H          0.8733290762       -1.9938436033        0.4903837811
 H          0.3833202811       -1.6072898946       -1.1549800866
  19
  -21.1013868800000       2.348551529651961E-002 !gc
 C          2.5026830860        0.0637414563       -0.0622833285
 C          0.9982787115        0.0668809352       -0.0059804896
 C          0.3076785451        1.1944614633        0.0966669076
 C         -1.1886958395        1.2725370028        0.1263061749
 C         -1.8224714711       -0.0262766214       -0.3631044418
 C         -1.1438559467       -1.2092688262        0.3171534635
 C          0.3236213930       -1.2740922743       -0.0974651664
 H          2.9208370043        0.5403266607        0.8226159608
 H          2.8536591909        0.6160056550       -0.9325988128
 H          2.8859781179       -0.9512112170       -0.1222499622
 H          0.8301254835        2.1397118627        0.1728187986
 H         -1.5143223496        1.4797302819        1.1518078284
 H         -1.5212735668        2.1116771905       -0.4901382199
 H         -2.8929629739       -0.0247002799       -0.1499352686
 H         -1.6921296593       -0.1102814064       -1.4440677454
 H         -1.2101177065       -1.0843123778        1.4000046008
 H         -1.6459591868       -2.1418634779        0.0530619962
 H          0.8560476241       -1.9904514665        0.5334376482
 H          0.4013638165       -1.6331138580       -1.1293353128
  19
  -21.1013862800000       2.347060867857275E-002 !gc
 C          2.5027697019        0.0638616883       -0.0615249462
 C          0.9983422773        0.0665257612       -0.0058620174
 C          0.3076908511        1.1941131239        0.0969234592
 C         -1.1886342714        1.2729723409        0.1249024058
 C         -1.8231641161       -0.0265257814       -0.3616713162
 C         -1.1431776146       -1.2090675293        0.3180549294
 C          0.3234480472       -1.2741514307       -0.0993546958
 H          2.8530333419        0.5956719310       -0.9448874672
 H          2.8874977246       -0.9517174844       -0.0976431387
 H          2.9203053043        0.5621127968        0.8115901790
 H          0.8302899316        2.1392352509        0.1738471039
 H         -1.5149665820        1.4832391994        1.1495227166
 H         -1.5200259340        2.1107517192       -0.4940725677
 H         -2.8932656099       -0.0246282002       -0.1465045450
 H         -1.6949442718       -0.1115446246       -1.4427819479
 H         -1.2070929757       -1.0831954651        1.4009466133
 H         -1.6456425583       -2.1419612942        0.0557766457
 H          0.8563831833       -1.9919200731        0.5294570738
 H          0.3992405026       -1.6314878325       -1.1319110208
  19
  -21.0973606600000       3.314953906675705E-004 !mtd4
 C          2.4524543653       -0.0328350254        0.2776838525
 C          1.0046723925        0.1069445640       -0.0641649700
 C          0.3017869604        1.2264434737        0.0543308821
 C         -1.1477409833        1.2035364641       -0.3165350887
 C         -1.8472879902        0.0076362558        0.3502494569
 C         -1.0301873141       -1.2914626957        0.2374832685
 C          0.2672557078       -1.1027412046       -0.5626139869
 H          2.8658021985        0.9154948808        0.6113995654
 H          3.0125000388       -0.3755760895       -0.5915662219
 H          2.5822852856       -0.7707852245        1.0687002672
 H          0.7366062624        2.1464932246        0.4150370276
 H         -1.6440070834        2.1295294241       -0.0254231054
 H         -1.2396648416        1.1024337501       -1.4029471697
 H         -2.0018272153        0.2471243372        1.4035186374
 H         -2.8312947457       -0.1214482743       -0.1025968139
 H         -0.7636335395       -1.6395290555        1.2368632899
 H         -1.6260456143       -2.0747419561       -0.2329200331
 H          0.8834761971       -1.9985998571       -0.4816490848
 H          0.0144446432       -0.9608860030       -1.6175767308
  19
  -21.0973606500000       3.314918828187165E-004 !mtd10
 C          2.4522440093       -0.0331663719        0.2778954082
 C          1.0046110732        0.1069052323       -0.0645208144
 C          0.3017760688        1.2264126524        0.0542288094
 C         -1.1478507763        1.2037780539       -0.3162601531
 C         -1.8475330435        0.0074189105        0.3497002035
 C         -1.0294213706       -1.2912428708        0.2383613187
 C          0.2671796082       -1.1026513974       -0.5631251361
 H          3.0133329034       -0.3723448819       -0.5922010848
 H          2.5819503248       -0.7738825862        1.0664086790
 H          2.8645939342        0.9143327082        0.6151171300
 H          0.7367333352        2.1463764949        0.4150686948
 H         -1.6440514863        2.1295483009       -0.0241627600
 H         -1.2402716312        1.1036449023       -1.4027028357
 H         -2.0037311133        0.2469996797        1.4027291779
 H         -2.8308185435       -0.1222360115       -0.1046401800
 H         -0.7615236754       -1.6374939700        1.2380532691
 H         -1.6251731740       -2.0757211438       -0.2302191767
 H          0.8835525442       -1.9985040916       -0.4829690609
 H          0.0134233592       -0.9604043933       -1.6178096730
  19
  -21.0973606200000       3.314813594961170E-004 !mtd6
 C          2.4490766609       -0.0252359927       -0.3049363465
 C          1.0054074369        0.1053022185        0.0571566520
 C          0.3013968503        1.2275085383       -0.0228122868
 C         -1.1440783176        1.1941758011        0.3627470387
 C         -1.8518738255        0.0165863334       -0.3278972502
 C         -1.0312402515       -1.2836373169       -0.2658485073
 C          0.2726746757       -1.1179101200        0.5287100699
 H          2.8589013061        0.9317228230       -0.6176799474
 H          2.5694264632       -0.7417569315       -1.1170756181
 H          3.0191171425       -0.3914238900        0.5482543923
 H          0.7323995562        2.1573433869       -0.3624476064
 H         -1.2240809688        1.0637018997        1.4470463759
 H         -1.6433431498        2.1277079728        0.1023953759
 H         -2.8284684260       -0.1275630857        0.1363109413
 H         -2.0233131444        0.2862073437       -1.3711992232
 H         -1.6214301640       -2.0836860345        0.1829679268
 H         -0.7721661784       -1.5972662204       -1.2785388731
 H          0.0286675511       -1.0056021339        1.5893188228
 H          0.8880446050       -2.0111484247        0.4174697855
  19
  -21.0973605000000       3.314392695450314E-004 !mtd6
 C          2.4490178612       -0.0246141655       -0.3052739767
 C          1.0052267649        0.1052649806        0.0568726902
 C          0.3013523978        1.2276576431       -0.0216303391
 C         -1.1441866393        1.1935743978        0.3636355784
 C         -1.8504814198        0.0175706257       -0.3309733726
 C         -1.0326942920       -1.2842383363       -0.2635711128
 C          0.2730502331       -1.1183365479        0.5281502873
 H          2.5685004789       -0.7360678558       -1.1219125196
 H          3.0183076112       -0.3971813774        0.5458072549
 H          2.8598339751        0.9339543596       -0.6122377726
 H          0.7323608360        2.1578191897       -0.3602655830
 H         -1.2248895851        1.0604646212        1.4475026140
 H         -1.6434688097        2.1275651775        0.1049599055
 H         -2.8302169128       -0.1245122889        0.1272205695
 H         -2.0148038303        0.2876698572       -1.3753389580
 H         -1.6238401220       -2.0805645734        0.1905789465
 H         -0.7764953474       -1.6038207744       -1.2751092425
 H          0.0311231812       -1.0067439593        1.5893039201
 H          0.8882764838       -2.0114078880        0.4152361142
  19
  -21.0973604700000       3.314287478926582E-004 !mtd1
 C          2.4492328339       -0.0243803869       -0.3051129394
 C          1.0053196147        0.1052200509        0.0566133312
 C          0.3014907230        1.2276586263       -0.0212834660
 C         -1.1442317588        1.1935748982        0.3633532830
 C         -1.8507214776        0.0176624850       -0.3311477473
 C         -1.0331451593       -1.2842818587       -0.2630086658
 C          0.2733238901       -1.1186100860        0.5276355062
 H          3.0182590520       -0.3964978561        0.5461863580
 H          2.8601124295        0.9342335581       -0.6114255040
 H          2.5696502348       -0.7357723410       -1.1217354990
 H          0.7327929736        2.1580720926       -0.3588602761
 H         -1.2254416005        1.0608123446        1.4472126731
 H         -1.6433554027        2.1275147532        0.1042776742
 H         -2.8306386670       -0.1241462936        0.1267875270
 H         -2.0147961210        0.2874751780       -1.3756604336
 H         -1.6244664411       -2.0798176726        0.1925110662
 H         -0.7780419370       -1.6051522099       -1.2745536839
 H          0.0323118847       -1.0075249576        1.5890812169
 H          0.8884950833       -2.0116065841        0.4138362222
  19
  -21.0973604000000       3.314041986677156E-004 !mtd5
 C          2.4522240907       -0.0327786528        0.2784171100
 C          1.0046301750        0.1069937219       -0.0643020439
 C          0.3018543865        1.2266546924        0.0533796027
 C         -1.1478888905        1.2035034864       -0.3165737199
 C         -1.8466641783        0.0078738900        0.3515328654
 C         -1.0307156342       -1.2917329188        0.2363262792
 C          0.2675608012       -1.1029241458       -0.5625797780
 H          2.5807678765       -0.7651817504        1.0749868840
 H          2.8670982459        0.9173099049        0.6051604939
 H          3.0118384687       -0.3829589074       -0.5882951348
 H          0.7367763267        2.1469297830        0.4134211422
 H         -1.6440310189        2.1295141665       -0.0252042828
 H         -1.2407850535        1.1020593532       -1.4028706426
 H         -1.9985175723        0.2472679835        1.4053214664
 H         -2.8318986325       -0.1205247205       -0.0990081138
 H         -0.7654356182       -1.6423240184        1.2352529943
 H         -1.6270913026       -2.0733862908       -0.2363265679
 H          0.8837799258       -1.9987672200       -0.4810024713
 H          0.0155725539       -0.9612423522       -1.6178183355
  19
  -21.0971237800000       2.579971945454025E-004 !mtd9
 C          2.4742366495       -0.0222983813       -0.2326898447
 C          1.0123172541        0.0933872510        0.0573112733
 C          0.3065221430        1.2068708248       -0.0885206771
 C         -1.1491768545        1.2495825629        0.2634818443
 C         -1.9164653954       -0.0375399588       -0.1107688167
 C         -1.0018849459       -1.2412020739       -0.3559064514
 C          0.2754328236       -1.1458019704        0.4812748249
 H          2.6432989601       -0.7363398046       -1.0383858717
 H          3.0029170259       -0.3843454118        0.6483783646
 H          2.8907985895        0.9388690094       -0.5231923732
 H          0.7664684869        2.1282813106       -0.4162341151
 H         -1.2237654938        1.3976475925        1.3460507719
 H         -1.6210474183        2.1125633969       -0.2081129953
 H         -2.6153819471       -0.2713503859        0.6940108644
 H         -2.5078322417        0.1420180676       -1.0097204066
 H         -1.5379755661       -2.1638343435       -0.1286826743
 H         -0.7127057909       -1.2738475778       -1.4086385722
 H          0.0107274745       -1.0843376689        1.5404440812
 H          0.8927994467       -2.0327396346        0.3350762449
  19
  -21.0969319300000       2.105944046363326E-004 !mtd3
 C          2.4547664090        0.0255277602       -0.2860888224
 C          0.9955815525        0.1018884683        0.0363873768
 C          0.3035636340        1.2329284500        0.0674332254
 C         -1.1671060904        1.1932919801        0.3463662413
 C         -1.7622374074        0.0476897742       -0.4751193499
 C         -1.1503523479       -1.2950205880       -0.0684076099
 C          0.3153064173       -1.1874840096        0.4061006441
 H          2.6108273152       -0.5822620190       -1.1768368639
 H          2.9992267998       -0.4411299165        0.5341205389
 H          2.8656100820        1.0161959542       -0.4626037327
 H          0.7626327645        2.1843153094       -0.1579306033
 H         -1.3510436106        1.0107930430        1.4094118869
 H         -1.6390576459        2.1391742925        0.0786809911
 H         -2.8457324715        0.0113168409       -0.3523937502
 H         -1.5511924767        0.2441149930       -1.5286288339
 H         -1.7444955031       -1.7315905888        0.7361321782
 H         -1.2074026433       -1.9769529575       -0.9179906070
 H          0.3346202467       -1.2590587570        1.4981296950
 H          0.8908699786       -2.0308989940        0.0220662056
