! pbe def2-sv(p) def2/J RI DEFGRID1 loosescf d4 GCP(DFT/SV(P)) printgap
%output
    printlevel normal
end
* xyz 0 1
C 3.5214645772 -3.9162613275 0.0507207189
C 3.8841228308 -2.9571592007 -1.0713963541
O 2.699527431 -2.3782789111 -1.6585919843
C 2.1819963582 -1.3051287484 -1.1082782483
O 2.6454185802 -0.7275070833 -0.1444364184
C 0.9090507974 -0.8752214896 -1.8017722514
C 0.5866416133 0.5887810086 -1.5025250952
H 1.0751786295 1.2681766721 -2.2006940801
C 0.9402489618 0.9859255148 -0.0837812295
O 0.3092599301 0.5341868611 0.8605205434
O 1.8448649907 1.9161842641 -0.0153610522
C 2.2154669177 2.4188408808 1.2879541317
C 1.2473077975 3.4945169422 1.7523101105
S -1.2088814417 0.8987083462 -1.6276544901
P -1.9804066648 0.2637955711 0.2524954728
S -2.2180121187 1.4004381178 1.8432840864
O -3.3939395053 0.0892559153 -0.5031573501
C -4.6145399321 -0.1594271534 0.1949276621
O -1.6549799376 -1.286484285 0.5287460491
C -0.9513344655 -1.7793396015 1.6658903037
H 2.8381519717 -4.6784203554 -0.3133303247
H 4.423614057 -4.3920335184 0.4205376994
H 3.0489683302 -3.3768716828 0.8690060881
H 4.367323858 -3.4767927281 -1.8984291489
H 4.5204691302 -2.1486374401 -0.7013528256
H 0.1108691452 -1.5190226833 -1.418608593
H 0.9840253765 -1.0481467012 -2.8739778795
H 2.2367274352 1.5791711311 1.9870362621
H 3.2184322359 2.8185717324 1.1405610051
H 0.2525412218 3.0774259857 1.9008953613
H 1.5945038818 3.9036155898 2.6951039885
H 1.1883111104 4.2904559591 1.0150920293
H -4.6607681977 0.4468722772 1.1027649232
H -4.6858309277 -1.2158940204 0.4520717404
H -5.4110213497 0.1228997045 -0.4891749379
H -1.0934683647 -1.1096976463 2.5157235105
H 0.1131273702 -1.8488299003 1.4437651974
H -1.3702228811 -2.7612705978 1.8738785952
*
