! pbe def2-sv(p) def2/J RI DEFGRID1 loosescf d4 GCP(DFT/SV(P)) printgap
%output
    printlevel normal
end
* xyz 0 1
C 0.6747785004 -2.6609656645 0.8895360567
C 1.9068248046 -2.051307492 1.5265352728
O 2.150584244 -0.7119739245 1.0701616293
P 2.5634696826 -0.3889250105 -0.4371034902
S 3.6234109958 -1.7741758736 -1.3260105461
O 3.253261171 1.0332928856 -0.2819249683
C 4.672747913 1.1650351708 -0.0575213697
C 5.0812571669 0.6496922603 1.3063923549
S 0.7916790353 0.232941081 -1.4067497547
C 0.2760629163 1.5338568862 -0.2377485756
S -0.6349006726 0.9103905744 1.1917252597
P -2.3973523241 0.4145621378 0.137878744
S -2.9277399895 1.6380464803 -1.308352367
O -3.4560921057 0.1224574913 1.2846127868
C -3.7550039443 0.9940098081 2.3909475701
C -4.0740289369 2.410003871 1.9580575662
O -2.078576298 -1.0612496727 -0.3480896799
C -2.6786068244 -1.6353645285 -1.5219148638
C -4.1313044752 -1.98259768 -1.2733283824
H 0.8150596944 -2.7278514145 -0.1901171987
H 0.5201822332 -3.6593042479 1.2860177114
H -0.2057608683 -2.0555973846 1.0906408354
H 2.7882972303 -2.6586958458 1.2965289414
H 1.793453946 -1.9451526233 2.6060253278
H 5.1986761457 0.6223899503 -0.8491896637
H 4.8529877164 2.2361127873 -0.1586652346
H 4.9401251185 -0.429293585 1.3516734728
H 6.1297377128 0.8745775155 1.4750118126
H 4.4805293604 1.1169957947 2.0823112259
H -0.373871615 2.1987530636 -0.8084528321
H 1.15271006 2.0549670947 0.1335584919
H -4.6150700223 0.5187908582 2.8661514708
H -2.8999229991 0.9812793185 3.072505038
H -4.8780871466 2.4121265375 1.2258223087
H -4.3750358525 2.9922606185 2.8230325078
H -3.1968472342 2.872285753 1.5071358479
H -2.5822040258 -0.9245666465 -2.3494789434
H -2.0742384893 -2.5197759974 -1.7272177305
H -4.546185675 -2.4629925855 -2.1537036062
H -4.2169388441 -2.6488987144 -0.4193181361
H -4.692458118 -1.0718245493 -1.065623088
*
