! pbe def2-sv(p) def2/J RI DEFGRID1 loosescf d4 GCP(DFT/SV(P)) printgap
%output
    printlevel normal
end
* xyz 0 1
C 1.421704997 2.0163944298 -1.81542977
C 2.2985630854 0.8003776089 -2.0311480093
O 2.1327134256 -0.1813162838 -0.9971060252
P 2.4982504994 0.126081568 0.530004497
S 4.0143931894 1.3458305284 0.7573688212
O 2.6898716297 -1.341885426 1.101166591
C 3.8885924748 -2.0970564326 0.8038821832
C 4.0374233904 -3.1708230226 1.8613911775
S 0.7009170043 0.59057976 1.5046387207
C -0.1700525292 -1.0041580735 1.2166780006
S -1.9504142672 -0.7895152914 1.2989520248
P -2.1796996631 0.0294776539 -0.6609544072
S -1.1456714668 -0.8417546224 -2.0733264157
O -1.7958943553 1.5529420575 -0.5190839733
C -2.3765001884 2.4563382784 0.4519145604
C -3.5549305457 3.2022756402 -0.1386414672
O -3.7529251022 0.0736543704 -0.8754398311
C -4.4976672053 -1.038818102 -1.4039888343
C -4.4846937202 -2.2362314526 -0.4764297589
H 1.6943881978 2.506013527 -0.8798511295
H 1.5653090985 2.7134891629 -2.6344471849
H 0.3736288669 1.7285942643 -1.7709417178
H 3.3530525088 1.0920324102 -2.0589261559
H 2.0279094273 0.2672054456 -2.9438562142
H 3.7769987786 -2.5257176099 -0.1950023978
H 4.7414287461 -1.4094801888 0.8064781206
H 4.9319127062 -3.7492982155 1.6545851193
H 4.1238773038 -2.7162356069 2.8443451973
H 3.1732965405 -3.828639997 1.8503888422
H 0.1088947203 -1.699722886 2.0028224218
H 0.1038187456 -1.3767165003 0.2277188991
H -2.6703516828 1.8850108416 1.3367156057
H -1.5600724155 3.133204067 0.7110569557
H -4.3593363015 2.5115022402 -0.375862263
H -3.9090468308 3.9305448706 0.584190049
H -3.2533356431 3.7168552939 -1.046879709
H -5.5049095496 -0.6394123431 -1.5306635031
H -4.0775911796 -1.3017874154 -2.3795719159
H -3.4858283096 -2.6671549648 -0.4350256618
H -4.7809748654 -1.9413682652 0.5270520219
H -5.1747382541 -2.9855067269 -0.851084662
*
