! r2scan-3c def2/J RI DEFGRID2 scfconv6 printgap
%output
    printlevel normal
end
%cpcm
    smd true
    smdsolvent "water"
end
* xyz 0 1
C -3.0632593407 -0.386627166 0.0104639246
C -1.6022478443 -0.050836117 -0.0073351447
C -1.1758908822 1.271020083 -0.0052075028
C 0.1729577503 1.5683623418 -0.0013127515
C 1.1401842555 0.5699080068 0.0007093017
C 0.7228527044 -0.7620242969 -0.0020104859
C -0.6379380986 -1.0460719968 -0.0056962718
C 1.6848408691 -1.9156487087 -0.0001839472
C 2.5931668115 0.9479832988 0.0044533829
H -3.626790961 0.316705916 -0.598408382
H -3.234316157 -1.3938275036 -0.3607473972
H -3.4454326467 -0.3294599314 1.0298041686
H -1.9035775355 2.0700293399 -0.0076343393
H 0.4854748382 2.603465128 -0.0010921659
H -0.9495603814 -2.0820211416 -0.0083331362
H 1.5000192772 -2.5532031277 -0.8635097634
H 2.7176514914 -1.5879657372 -0.0277365248
H 1.5366634158 -2.5189377759 0.8944864029
H 3.0935438976 0.5510248825 0.8864774416
H 3.0966272727 0.5580067787 -0.8789905687
H 2.6999564143 2.0296993341 0.0086094058
*
