! pbe def2-sv(p) def2/J RI DEFGRID1 loosescf d4 GCP(DFT/SV(P)) printgap
%output
    printlevel normal
end
* xyz 0 1
C 3.6982081696 -1.8716590371 -2.260138544
C 3.97673144 -0.3913552803 -2.1029166067
O 3.5472708195 0.1097800376 -0.8240967282
P 2.0162083204 0.166312154 -0.4038766106
S 0.7941660606 0.7014675234 -1.838903397
O 2.0144287368 1.205566944 0.7818750241
C 3.1065449325 1.475996619 1.6942465282
C 3.4610194048 0.2858782241 2.5604972167
S 1.6666689124 -1.745246487 0.4611006012
C 0.0465027031 -1.442045657 1.2061246246
S -1.3267562146 -1.4711188569 0.0139010011
P -2.1001635234 0.5024641681 0.2479684887
S -1.1109996301 1.6372274613 1.5018294654
O -3.6404400753 0.2404234735 0.5761873373
C -4.1421212651 -0.6633974389 1.5754902629
C -3.7510813189 -0.2570472574 2.9816263828
O -2.2337115646 1.2368700136 -1.1349590157
C -3.1310255388 0.8855088715 -2.2148619588
C -2.8104378053 -0.4660892277 -2.8168101358
H 2.6235031485 -2.0440533078 -2.3003259697
H 4.144880988 -2.223660313 -3.1844028014
H 4.111350644 -2.4280114177 -1.422674292
H 3.4683446635 0.1808394302 -2.8852527262
H 5.0460513575 -0.1758389217 -2.1183015035
H 3.9658639979 1.8024382038 1.1055863113
H 2.7227500032 2.3067623707 2.289329559
H 2.5840926475 -0.0673310782 3.0974804438
H 3.8572909115 -0.5238469077 1.9519671187
H 4.2158131903 0.5915308755 3.278491926
H 0.0427990258 -0.4663735226 1.7034033739
H -0.1079663399 -2.2550851225 1.9103739243
H -5.2239829724 -0.6211931169 1.4368515667
H -3.7781323564 -1.6690677831 1.345387646
H -2.6707848147 -0.3094797377 3.1045198033
H -4.0655014845 0.764442052 3.180903744
H -4.2243147517 -0.9256223578 3.6933595387
H -4.153632987 0.920646963 -1.833616492
H -2.9705581491 1.6892339703 -2.9352938433
H -3.0315384106 -1.2642974951 -2.1098523396
H -3.4093134544 -0.6082985174 -3.7107502068
H -1.7555564661 -0.511385796 -3.0803834309
*
