  24
  -31.8152392500000       0.111121040025451      !gc
 C         -1.0426748463       -2.9162696821       -0.0001835745
 C         -1.0104148645       -1.4171758963       -0.0000112162
 C         -2.1779527426       -0.7009441908        0.0001276423
 C         -2.1784075308        0.6995383777        0.0001388237
 C         -1.0113373839        1.4165202968       -0.0000167359
 C          0.2234100859        0.7116772341       -0.0000298620
 C          0.2238795439       -0.7115133893        0.0000063740
 C          1.4649792171       -1.3849454639        0.0000760829
 C          2.6474068412       -0.6994761769        0.0000792723
 C          2.6469368403        0.7011737156       -0.0000090352
 C          1.4640671720        1.3858966233       -0.0000472946
 C         -1.0447483867        2.9155914072       -0.0001063041
 H         -2.0708451996       -3.2688049706       -0.0006311178
 H         -0.5423010447       -3.3125247862       -0.8825334332
 H         -0.5430137590       -3.3127080831        0.8824920394
 H         -3.1260035854       -1.2201965928        0.0002178916
 H         -3.1268185397        1.2181297694        0.0002573555
 H          1.4782984761       -2.4632888696        0.0001375163
 H          3.5865812554       -1.2330400884        0.0001496158
 H          3.5857464770        1.2353838999        0.0000104272
 H          1.4767805372        2.4642495373       -0.0000323544
 H         -0.5454791359        3.3123019848        0.8826792178
 H         -0.5444339599        3.3122487013       -0.8823133598
 H         -2.0731825511        3.2673812891       -0.0007218620
  24
  -31.8152392200000       0.111117512449813      !mtd10
 C         -1.0428710312       -2.9162805416       -0.0000027722
 C         -1.0104180059       -1.4172161241        0.0000492673
 C         -2.1779225953       -0.7009672882        0.0001728331
 C         -2.1783409969        0.6995418235       -0.0000411966
 C         -1.0113161440        1.4164872349       -0.0001401665
 C          0.2234510717        0.7116407892        0.0000447172
 C          0.2239353128       -0.7115306378       -0.0000049796
 C          1.4650080225       -1.3849301114       -0.0001692330
 C          2.6474398494       -0.6993967802       -0.0001198831
 C          2.6469140690        0.7012367173        0.0001121041
 C          1.4640294444        1.3859034574        0.0002062747
 C         -1.0447266411        2.9155648515       -0.0001169794
 H         -0.5428636988       -3.3125637068       -0.8826329465
 H         -0.5429299160       -3.3126693117        0.8826081785
 H         -2.0710812187       -3.2686460949       -0.0000854363
 H         -3.1260113992       -1.2201618977        0.0002469930
 H         -3.1267745005        1.2180610413        0.0002996206
 H          1.4784507251       -2.4632697619       -0.0004184991
 H          3.5866096663       -1.2329650164       -0.0002425545
 H          3.5857334547        1.2354657818        0.0002756198
 H          1.4766859759        2.4642908773        0.0004768459
 H         -2.0731897633        3.2674120328        0.0005099443
 H         -0.5444777836        3.3123288430        0.8820368338
 H         -0.5452802952        3.3120809668       -0.8829552633
  24
  -31.8152392200000       0.111117512449813      !md1
 C         -1.0428081090       -2.9162842745        0.0004812990
 C         -1.0104185985       -1.4171964154        0.0000167516
 C         -2.1779242582       -0.7009757502       -0.0004476203
 C         -2.1783704451        0.6995396663       -0.0003865736
 C         -1.0113343419        1.4165180879        0.0000447153
 C          0.2234593209        0.7116494183        0.0001766103
 C          0.2239065602       -0.7115179922        0.0001514967
 C          1.4649723164       -1.3849117289       -0.0000870717
 C          2.6473976006       -0.6994061042       -0.0004204287
 C          2.6469767375        0.7011983302       -0.0000937403
 C          1.4640864471        1.3858900989        0.0002361068
 C         -1.0447767184        2.9155715306        0.0002035166
 H         -0.5425897319       -3.3123236878        0.8830129010
 H         -2.0710022450       -3.2688123800        0.0007468669
 H         -0.5428627481       -3.3128966043       -0.8819432621
 H         -3.1260348169       -1.2201173879       -0.0001708000
 H         -3.1268106088        1.2181058485       -0.0005800306
 H          1.4784931518       -2.4632552979       -0.0000489676
 H          3.5865349355       -1.2330202372       -0.0003840723
 H          3.5858070851        1.2353252240       -0.0001319928
 H          1.4767270107        2.4642447712        0.0002331052
 H         -0.5451230812        3.3123585306       -0.8823106244
 H         -2.0732151547        3.2673477416        0.0004181207
 H         -0.5448637426        3.3121513024        0.8826476289
  24
  -31.8152392000000       0.111115160795352      !gc
 C         -1.0426974179       -2.9162672775       -0.0007879044
 C         -1.0104116696       -1.4171785302       -0.0000788901
 C         -2.1779529749       -0.7009461152        0.0001770948
 C         -2.1784115516        0.6995299804        0.0004413149
 C         -1.0113371516        1.4165143387        0.0001085985
 C          0.2234068833        0.7116788271       -0.0001353381
 C          0.2238810595       -0.7115159735        0.0001745747
 C          1.4649897896       -1.3849390205        0.0007309552
 C          2.6474133716       -0.6994688720        0.0005521015
 C          2.6469367142        0.7011774961       -0.0003865333
 C          1.4640657296        1.3858988416       -0.0006664116
 C         -1.0447339278        2.9155857172        0.0000111292
 H         -2.0708688444       -3.2687864214       -0.0027306581
 H         -0.5411427462       -3.3122230991       -0.8825985606
 H         -0.5442345826       -3.3129986621        0.8824411551
 H         -3.1260002185       -1.2202067505        0.0001610658
 H         -3.1268229041        1.2181140553        0.0008549421
 H          1.4782997397       -2.4632799663        0.0014350709
 H          3.5865923340       -1.2330234456        0.0010919298
 H          3.5857417630        1.2353939986       -0.0008281126
 H          1.4767858753        2.4642498389       -0.0013491633
 H         -0.5464014326        3.3121235661       -0.8833852150
 H         -2.0731620807        3.2673761218        0.0016173649
 H         -0.5435164280        3.3124335901        0.8816135816
  24
  -31.8152391700000       0.111111633406769      !mtd2
 C         -1.0428294572       -2.9162815062       -0.0009893423
 C         -1.0103956685       -1.4172022063        0.0001081297
 C         -2.1779223938       -0.7009847954        0.0001923028
 C         -2.1783914781        0.6995285215        0.0003790800
 C         -1.0113487753        1.4165247630        0.0001986864
 C          0.2234406687        0.7116685855        0.0001565670
 C          0.2239219341       -0.7115103072        0.0004408059
 C          1.4649881117       -1.3849350150        0.0007833302
 C          2.6474347341       -0.6994428871        0.0003136067
 C          2.6469633043        0.7012007165       -0.0004731073
 C          1.4640602856        1.3859145701       -0.0004261398
 C         -1.0447562788        2.9155923306       -0.0002566420
 H         -2.0709959020       -3.2687821979       -0.0016998395
 H         -0.5423225625       -3.3119985220       -0.8835336078
 H         -0.5431640856       -3.3133199893        0.8814059658
 H         -3.1260172123       -1.2201631780       -0.0001358278
 H         -3.1268308856        1.2180828084        0.0006468483
 H          1.4784086356       -2.4632817053        0.0016102655
 H          3.5866077297       -1.2330242768        0.0005387512
 H          3.5857707977        1.2354216846       -0.0014580511
 H          1.4767607489        2.4642685982       -0.0012390266
 H         -2.0731976212        3.2673979250        0.0020265966
 H         -0.5429286089        3.3126786532        0.8808706779
 H         -0.5470128077        3.3118530093       -0.8841245551
  24
  -31.8152391600000       0.111110457635319      !gc
 C         -1.0426884565       -2.9162667416       -0.0012952872
 C         -1.0104161402       -1.4171781421       -0.0000757776
 C         -2.1779558628       -0.7009472523        0.0005961719
 C         -2.1784110567        0.6995305475        0.0008795973
 C         -1.0113381337        1.4165146962        0.0001411613
 C          0.2234075041        0.7116794186       -0.0001384870
 C          0.2238792586       -0.7115146108        0.0001652619
 C          1.4649863820       -1.3849386471        0.0007603801
 C          2.6474115794       -0.6994697871        0.0006973964
 C          2.6469369979        0.7011757223       -0.0002442624
 C          1.4640660390        1.3858983055       -0.0006459473
 C         -1.0447327609        2.9155858173       -0.0005116965
 H         -0.5409513702       -3.3118772946       -0.8831566458
 H         -0.5443994955       -3.3133271344        0.8818836056
 H         -2.0708565099       -3.2687998022       -0.0035803330
 H         -3.1260049238       -1.2202043841        0.0007799625
 H         -3.1268220944        1.2181154756        0.0014889619
 H          1.4782999098       -2.4632792509        0.0014880312
 H          3.5865883546       -1.2330280229        0.0013474891
 H          3.5857422756        1.2353916639       -0.0005871489
 H          1.4767889147        2.4642492691       -0.0013398678
 H         -0.5467161584        3.3117268122       -0.8842699542
 H         -2.0731592420        3.2673813387        0.0013027618
 H         -0.5431974273        3.3128251793        0.8807283211
  24
  -31.8152391400000       0.111108106129746      !md2
 C         -1.0427928650       -2.9163033287       -0.0013191068
 C         -1.0104115148       -1.4171952812       -0.0001730142
 C         -2.1779222393       -0.7009692916        0.0002407448
 C         -2.1784004117        0.6995433255        0.0007494694
 C         -1.0113529351        1.4165204927        0.0001322027
 C          0.2234488503        0.7116643526       -0.0002980674
 C          0.2239202406       -0.7115172104        0.0002760247
 C          1.4649661440       -1.3849418822        0.0013352296
 C          2.6474198438       -0.6994402493        0.0009883481
 C          2.6469751529        0.7012003828       -0.0007510595
 C          1.4640706520        1.3859177734       -0.0011685178
 C         -1.0447622739        2.9155883418        0.0001464665
 H         -0.5435866064       -3.3134054057        0.8813626964
 H         -2.0710442887       -3.2688028302       -0.0027280299
 H         -0.5418567920       -3.3118422252       -0.8837019403
 H         -3.1259925090       -1.2201650747        0.0004965245
 H         -3.1268062394        1.2181216361        0.0015387370
 H          1.4784297781       -2.4632858705        0.0025014576
 H          3.5865819036       -1.2330236663        0.0019840008
 H          3.5857682179        1.2354238496       -0.0016415533
 H          1.4767336615        2.4642593957       -0.0021915116
 H         -0.5444239927        3.3122399596        0.8823535946
 H         -0.5454591783        3.3122828030       -0.8825971085
 H         -2.0731901396        3.2673939301        0.0007316880
  24
  -31.8152391100000       0.111104578965116      !mtd1
 C         -1.0428010690       -2.9162947733        0.0005177994
 C         -1.0104035696       -1.4171974876        0.0000019897
 C         -2.1779112239       -0.7009787949       -0.0009392441
 C         -2.1783765179        0.6995345980       -0.0006660087
 C         -1.0113440030        1.4165301578        0.0001137199
 C          0.2234446831        0.7116681937       -0.0000553379
 C          0.2239187106       -0.7115107919        0.0002170009
 C          1.4649762875       -1.3849362692        0.0005383352
 C          2.6474202277       -0.6994371490        0.0001557772
 C          2.6469576869        0.7011816815       -0.0006390902
 C          1.4640626785        1.3859050880       -0.0007532591
 C         -1.0447755384        2.9156052933        0.0012575272
 H         -0.5452688767       -3.3128397584       -0.8833785965
 H         -0.5401906428       -3.3124737567        0.8816552246
 H         -2.0710120508       -3.2687932043        0.0035611442
 H         -3.1259955849       -1.2201570753       -0.0012664161
 H         -3.1268098017        1.2180809677       -0.0008960114
 H          1.4784088119       -2.4632742947        0.0010059758
 H          3.5865717742       -1.2330367701        0.0004157313
 H          3.5857620067        1.2354007253       -0.0013439550
 H          1.4767910270        2.4642636779       -0.0016692561
 H         -0.5440206790        3.3115048326        0.8835461273
 H         -0.5459934796        3.3131478889       -0.8813952002
 H         -2.0732043870        3.2673456097        0.0027538677
  24
  -31.8152390200000       0.111093998142621      !md2
 C         -1.0428724044       -2.9162782783       -0.0020620982
 C         -1.0103782064       -1.4172103038       -0.0002016829
 C         -2.1778608414       -0.7009656948        0.0010930646
 C         -2.1783702562        0.6995148466        0.0015921972
 C         -1.0113470512        1.4165299680        0.0001210923
 C          0.2234089054        0.7116721248       -0.0004437652
 C          0.2239250072       -0.7115079442        0.0000177625
 C          1.4650079119       -1.3849404251        0.0011911146
 C          2.6474201730       -0.6994305818        0.0012778047
 C          2.6469326872        0.7012148793       -0.0002972709
 C          1.4640500633        1.3859067443       -0.0010194647
 C         -1.0447285492        2.9155560645       -0.0008089810
 H         -0.5446944882       -3.3139675775        0.8808681242
 H         -2.0710179206       -3.2688437984       -0.0046573065
 H         -0.5409976129       -3.3114244480       -0.8840509144
 H         -3.1259480652       -1.2201373301        0.0010998700
 H         -3.1267719247        1.2180949754        0.0023900090
 H          1.4783177767       -2.4632723015        0.0022197883
 H          3.5865801878       -1.2330281634        0.0023443817
 H          3.5857971231        1.2353228525       -0.0007105618
 H          1.4767330071        2.4642642387       -0.0018393850
 H         -2.0730800521        3.2674047410       -0.0019983071
 H         -0.5458296245        3.3129188528        0.8818437835
 H         -0.5442777445        3.3119362704       -0.8829885302
