  24
        -31.81523925
 C         -1.0426748463       -2.9162696821       -0.0001835745
 C         -1.0104148645       -1.4171758963       -0.0000112162
 C         -2.1779527426       -0.7009441908        0.0001276423
 C         -2.1784075308        0.6995383777        0.0001388237
 C         -1.0113373839        1.4165202968       -0.0000167359
 C          0.2234100859        0.7116772341       -0.0000298620
 C          0.2238795439       -0.7115133893        0.0000063740
 C          1.4649792171       -1.3849454639        0.0000760829
 C          2.6474068412       -0.6994761769        0.0000792723
 C          2.6469368403        0.7011737156       -0.0000090352
 C          1.4640671720        1.3858966233       -0.0000472946
 C         -1.0447483867        2.9155914072       -0.0001063041
 H         -2.0708451996       -3.2688049706       -0.0006311178
 H         -0.5423010447       -3.3125247862       -0.8825334332
 H         -0.5430137590       -3.3127080831        0.8824920394
 H         -3.1260035854       -1.2201965928        0.0002178916
 H         -3.1268185397        1.2181297694        0.0002573555
 H          1.4782984761       -2.4632888696        0.0001375163
 H          3.5865812554       -1.2330400884        0.0001496158
 H          3.5857464770        1.2353838999        0.0000104272
 H          1.4767805372        2.4642495373       -0.0000323544
 H         -0.5454791359        3.3123019848        0.8826792178
 H         -0.5444339599        3.3122487013       -0.8823133598
 H         -2.0731825511        3.2673812891       -0.0007218620
