! pbe def2-sv(p) def2/J RI DEFGRID1 loosescf d4 GCP(DFT/SV(P)) printgap
%output
    printlevel normal
end
* xyz 0 1
C 5.892109272 -1.4725563036 -0.9820924013
C 4.5462640694 -0.8520764797 -1.297401078
O 3.7732923505 -0.8254290726 -0.0794885166
P 2.5199745043 0.1379524534 0.0718967713
S 2.8419779105 2.024748004 -0.3277334386
O 2.0692728494 -0.0798004795 1.5612786115
C 1.7600214327 -1.374032003 2.1385961405
C 2.9777360592 -1.9756982755 2.8086336612
S 1.0552414348 -0.8126099966 -1.1602080157
C -0.0424659835 0.6163424632 -1.2898050383
S -0.9594060428 0.9390400405 0.2366441441
P -2.9265528192 0.3504908689 -0.3910789592
S -3.0934586649 -0.2945430681 -2.2310116289
O -3.8189094603 1.6269583841 -0.1520728669
C -3.6922949761 2.5903043952 0.9202934682
C -3.6921800532 1.946143041 2.2891280606
O -3.4690612294 -0.6571649555 0.7133595459
C -3.2778886223 -2.0787786623 0.6239158605
C -1.8290559112 -2.4734980741 0.826706386
H 5.7586800322 -2.4826502132 -0.6061179982
H 6.4897683041 -1.5029598487 -1.8871369175
H 6.4089036828 -0.8806560628 -0.2318224915
H 3.9958090171 -1.4407097438 -2.036052763
H 4.6546120701 0.1740061767 -1.6644249808
H 0.9726137002 -1.1583301852 2.8629482036
H 1.376375901 -2.0298970655 1.352023386
H 2.6925317681 -2.9053207679 3.2912215079
H 3.7526905576 -2.175379643 2.0738892753
H 3.3704147138 -1.2896352857 3.554009232
H -0.7508518732 0.4055508047 -2.0946892493
H 0.5625792752 1.4976270251 -1.5053755313
H -2.7738634174 3.1610880685 0.7588113016
H -4.5589265828 3.2372657538 0.7763308069
H -3.6897391207 2.7233285443 3.0472134881
H -4.5736150108 1.3226488202 2.4124184787
H -2.8024647469 1.3305942541 2.4108782581
H -3.9173014911 -2.477060854 1.4130284977
H -3.6369515053 -2.4177656274 -0.3529864508
H -1.2269672904 -2.1311473558 -0.0144570796
H -1.4451868997 -2.0341711694 1.7439510329
H -1.7565791649 -3.5544798387 0.8874066609
*
