! r2scan-3c def2/J RI DEFGRID2 scfconv6 printgap
%output
    printlevel normal
end
%cpcm
    smd true
    smdsolvent "water"
end
* xyz 0 1
C -1.4802962446 -0.0017362939 -0.2438772632
C -0.7323122379 -1.2446478718 0.2359156597
C 0.723307052 -1.1712822253 -0.2248306365
O 1.3673174577 0.0015957419 0.239603304
C 0.7203829605 1.1729218151 -0.2248374151
C -0.7353747751 1.2429509494 0.23594581
H -2.5019276727 -0.002870488 0.1375346655
H -1.5232315478 -0.0018179561 -1.335741829
H -0.7551991176 -1.286908572 1.3262847846
H -1.1897958128 -2.1514990788 -0.1588597855
H 1.3091161616 -2.000386125 0.1756851504
H 0.7672272675 -1.1982561831 -1.3248960891
H 1.3042276434 2.0035325547 0.1756520557
H 0.7643724213 1.2004994172 -1.324809923
H -0.7583610227 1.2850806788 1.3263281457
H -1.1950202431 2.1486690255 -0.1588765758
*
