! pbe def2-sv(p) def2/J RI DEFGRID1 loosescf d4 GCP(DFT/SV(P)) printgap
%output
    printlevel normal
end
* xyz 0 1
C 3.9155068289 1.4398671664 -1.9203149522
C 2.5651834601 0.7958008351 -2.1476560045
O 2.3845638693 -0.3516064164 -1.3010667912
P 2.1466679136 -0.2308707399 0.2620629065
S 1.1123138356 1.3575953414 0.7929644161
O 3.6307006212 -0.289424723 0.8249503873
C 4.0103824425 -0.7309799602 2.1426111532
C 3.1917167206 -0.0874985332 3.2421370842
S 1.421199108 -2.1573754454 0.6956817502
C -0.2236211803 -2.0889945154 -0.0640979342
S -1.4269593578 -1.0952940889 0.8656549841
P -1.9214267773 0.4028964307 -0.5758831517
S -0.9199485662 0.2821472294 -2.2558472959
O -1.866951183 1.8362835274 0.055633902
C -2.7693524676 2.3599465456 1.0622417495
C -2.671178036 1.604886436 2.3698062862
O -3.4947775747 0.2068814404 -0.7500280335
C -4.0367625159 -0.9724231261 -1.374002442
C -5.5125953516 -0.7316168588 -1.6186395713
H 4.0475684952 2.257855772 -2.6214321294
H 3.9680056995 1.8273942542 -0.9033426772
H 4.7064192109 0.7077375336 -2.0584647982
H 2.4580715505 0.3987671273 -3.1581270816
H 1.7539280885 1.506664383 -1.9548488845
H 3.9118604654 -1.8195684567 2.1731802041
H 5.0632109426 -0.4515434068 2.212218286
H 2.1486450264 -0.3916946542 3.1592883134
H 3.5756574855 -0.4009214671 4.2075318696
H 3.2406683344 0.9965321406 3.1681778578
H -0.575921138 -3.1171060883 -0.0708067708
H -0.1434040664 -1.6852305262 -1.0776164439
H -2.4360736475 3.3931356875 1.1711042335
H -3.7832837465 2.3303128727 0.6591060312
H -3.0459979449 0.5889123009 2.2536011524
H -1.634114816 1.5617082246 2.6954913325
H -3.2621465224 2.1172758238 3.1223878183
H -3.4974582885 -1.1494028494 -2.310572231
H -3.8766887714 -1.8201399727 -0.7013159482
H -6.0193875507 -0.540589083 -0.6773228895
H -5.6469202675 0.1256337436 -2.2722859437
H -5.943036709 -1.6103327488 -2.0872963965
*
