! r2scan-3c def2/J RI DEFGRID2 scfconv6 printgap
%output
    printlevel normal
end
%cpcm
    smd true
    smdsolvent "water"
end
* xyz 0 1
C 5.777694193 -0.3521841241 -0.4346631124
C 4.3286661794 -0.736836765 -0.654921119
O 3.5058481329 0.3569801356 -0.2081792247
P 1.9789185022 0.4727902797 -0.6445674148
S 1.7177503874 0.3409866182 -2.5800906475
O 1.5963167937 1.8774671942 -0.0549380646
C 1.3007966304 2.195823791 1.3265710466
C 2.3684245049 1.7193534157 2.2866349968
S 1.0641561645 -1.0563465229 0.5173970654
C -0.0427161862 -1.8219664683 -0.7081999637
S -1.7331135612 -2.0050027251 -0.1002861363
P -2.1606927755 0.0534054611 0.2206512007
S -1.4375091818 1.3240146569 -1.0854646433
O -1.6628321349 0.3690383119 1.6834495654
C -2.1004433924 -0.3935514671 2.8438161363
C -0.8883492411 -0.7592938431 3.6752199503
O -3.7388696153 0.0775363987 0.4114719313
C -4.6651999654 0.2070233593 -0.6815368421
C -4.6098767985 -0.9719823723 -1.6310405832
H 6.0160175762 0.5410161273 -1.0053729533
H 5.9541676726 -0.1552047071 0.6185888216
H 6.4154493242 -1.1668643887 -0.7612764958
H 4.0589256981 -1.6242298818 -0.0753561498
H 4.1184115122 -0.9216317075 -1.7140953589
H 1.2212173803 3.2841724083 1.313633588
H 0.3246427527 1.7648440282 1.5684740005
H 3.3398313919 2.1021440667 1.9846986154
H 2.1321210654 2.0807085612 3.2828601613
H 2.4058335597 0.6311781136 2.303001646
H 0.3113926808 -2.8286339445 -0.9157294301
H -0.0262593907 -1.2051040429 -1.6115220618
H -2.7873285127 0.2536898647 3.3908304301
H -2.6329791275 -1.2842980167 2.5011805084
H -0.2133304551 -1.3901894145 3.1018091036
H -0.356225721 0.1381376707 3.9770221342
H -1.2168280336 -1.2963221253 4.5590289353
H -5.6351737715 0.2822063175 -0.188075779
H -4.4432884163 1.1384369262 -1.2112989547
H -3.6603604882 -0.9766203226 -2.1647655077
H -4.7112842267 -1.905894238 -1.0837833415
H -5.4152568509 -0.8871441987 -2.3536000294
*
