! pbe def2-sv(p) def2/J RI DEFGRID1 loosescf d4 GCP(DFT/SV(P)) printgap
%output
    printlevel normal
end
* xyz 0 1
C 4.74731864 1.0441249935 -0.8737847355
C 4.3744580555 1.0147493929 0.5940167356
O 3.397466209 0.0020666049 0.8922278161
P 1.9062506366 0.0587403057 0.3436492236
S 1.0729233278 1.8252252091 0.3513420288
O 1.1719724928 -0.9845738257 1.275031047
C 1.6818509885 -2.3298922877 1.4680576096
C 2.3540247525 -2.4486134314 2.8200971676
S 2.0243141722 -0.9220000099 -1.5494947803
C 0.3734858405 -0.4843994234 -2.117736499
S -0.9524862569 -1.4248950724 -1.2594031781
P -2.2421151841 0.0534573656 -0.4756515887
S -4.1529862373 -0.3797423567 -0.5234195372
O -1.7961317591 1.2873470771 -1.3624939528
C -2.6165275774 2.4697232244 -1.4772483012
C -2.6402090646 3.2681432868 -0.1916633073
O -1.7078252999 0.4185364249 0.9829104212
C -2.3321265931 -0.0944796741 2.1682398811
C -1.989440067 -1.5524380082 2.394350419
H 5.5813855678 1.7237511097 -1.0163716787
H 5.0281425005 0.050617228 -1.2139568309
H 3.90381089 1.3930417168 -1.4669648475
H 3.9737752346 1.9831125116 0.9091017463
H 5.2266192084 0.7447942773 1.219445576
H 0.8074633294 -2.9801929343 1.3915713399
H 2.3786356714 -2.5661010709 0.6592745224
H 1.6611768927 -2.1760275046 3.6117577019
H 2.6763618416 -3.4749423004 2.9648852183
H 3.2175514512 -1.7904860122 2.8679284988
H 0.3261572559 -0.7460481629 -3.1709994398
H 0.2082412929 0.5787860691 -1.9561484417
H -2.1489518694 3.0283148967 -2.2891558722
H -3.6260515985 2.159430917 -1.7659912412
H -1.6235857124 3.4340626446 0.1594167245
H -3.1233334635 4.2234606917 -0.3700173374
H -3.19265834 2.727823813 0.5755204746
H -1.9487733546 0.5412552627 2.9676490792
H -3.4160216376 0.0343982204 2.0726518521
H -2.460323959 -1.8981362002 3.3088946503
H -2.3547411732 -2.1480284838 1.5567697275
H -0.9128838784 -1.6702178711 2.4705755518
*
