! r2scan-3c def2/J RI DEFGRID2 scfconv6 printgap
%output
    printlevel normal
end
* xyz 0 1
C 2.9106729047 1.1694061142 3.1677067461
C 1.6007401829 0.578553578 2.6916699506
O 1.454603412 0.7242785824 1.263976964
P 2.305244687 -0.1433404229 0.2448159854
S 2.8541693753 -1.8940535994 0.9470747429
O 3.4441752159 0.8938686318 -0.139195203
C 4.2442414892 0.8623153454 -1.3346258596
C 4.8938690242 -0.4845539294 -1.575834499
S 1.0580436005 -0.1676268658 -1.4682357258
C 0.0883996097 -1.614870478 -0.9743585873
S -1.0205528527 -1.276335095 0.4124838376
P -2.263011589 0.1203584368 -0.629059499
S -2.5705693026 -0.2897534788 -2.5139547183
O -1.6299977921 1.5444283401 -0.4160141633
C -1.450989873 2.1462621991 0.8904078314
C -2.5524918405 3.1487385975 1.1633768081
O -3.5536047228 0.1698529519 0.2938860532
C -4.4757522952 -0.9395654212 0.3437603809
C -5.7439932145 -0.4571375792 1.0177367773
H 3.7403909819 0.6178926867 2.726439134
H 2.9854919914 2.2111498824 2.868024675
H 2.9704153066 1.0956251761 4.2488961105
H 0.7411385782 1.1069919673 3.1052550952
H 1.5393536468 -0.4854505907 2.9426599777
H 3.6057942558 1.1402836129 -2.1782162596
H 4.9904537956 1.6404970226 -1.1637731007
H 5.552688212 -0.4177573536 -2.43570555
H 5.4685104067 -0.7911670576 -0.704964395
H 4.1329632509 -1.2393379297 -1.7710627263
H 0.7588734397 -2.4131271745 -0.6543108869
H -0.500296255 -1.9060280137 -1.8441629887
H -1.4375051129 1.3542686416 1.6444050848
H -0.4705399214 2.624418916 0.8416045618
H -2.5745188768 3.8985240081 0.3774152955
H -3.5157051616 2.6464287552 1.1958478245
H -2.3658989767 3.6326474068 2.116949811
H -4.6662989607 -1.2785056033 -0.6795853617
H -4.0047701798 -1.7495205892 0.9073599405
H -5.5216428599 -0.102925899 2.0201080841
H -6.1863071047 0.3532827982 0.4452124979
H -6.4493488176 -1.2794194311 1.076258681
*
