! r2scan-3c def2/J RI DEFGRID2 scfconv6 printgap
%output
    printlevel normal
end
%cpcm
    smd true
    smdsolvent "water"
end
* xyz 0 1
C 2.0942992239 -1.5468006505 3.0917417113
C 1.1864809395 -1.3060189255 1.9013247172
O 1.5134886556 -0.0427391412 1.3011241583
P 2.1102720973 0.1494336991 -0.1618266123
S 2.8677409448 -1.4852496348 -0.9436758404
O 3.0268227372 1.427948964 0.0196004011
C 4.0499043123 1.5377120329 1.0329881645
C 5.2888840259 0.7402062175 0.6768212795
S 0.6683194934 1.1461276222 -1.3452995185
C -0.0841706335 -0.3319742254 -2.0736307141
S -0.8615222018 -1.4098968623 -0.8373263799
P -2.2840736345 -0.0135627126 -0.148829866
S -3.0885431632 1.2044205538 -1.4616236162
O -1.4591289756 0.6538350631 1.0272572367
C -1.8185350162 1.9253024711 1.6139898185
C -0.5468420337 2.6704933451 1.9656217293
O -3.3330619614 -0.8783257707 0.6767826478
C -4.513307124 -1.4421654673 0.0768711776
C -4.1791965365 -2.542244375 -0.9095481829
H 1.8030416936 -2.4723451382 3.5774301874
H 3.1271806955 -1.6307722943 2.7608138145
H 2.0129078131 -0.7283764365 3.8017557341
H 0.1371249181 -1.2397273994 2.1972938905
H 1.3037470527 -2.1003913421 1.1565876774
H 4.262844949 2.607613628 1.0679538088
H 3.6334001527 1.212810852 1.9897185326
H 6.0528544359 0.9075859228 1.4295789201
H 5.0582184749 -0.3227444851 0.6327680884
H 5.6671454549 1.0485900171 -0.294410094
H 0.6792332736 -0.9334219404 -2.5668277244
H -0.8355679311 0.017981984 -2.7802710908
H -2.4215637919 2.4876575398 0.8927453838
H -2.4189800835 1.7148746249 2.5019463688
H 0.063372408 2.0695005605 2.6338760084
H 0.0263485421 2.8813249129 1.065414691
H -0.8050187564 3.6053284255 2.4524189613
H -5.0835431957 -1.819981653 0.9264081075
H -5.0662577452 -0.6368463817 -0.4169005153
H -3.5372902248 -3.2860015162 -0.4442065812
H -5.0965525147 -3.0149877558 -1.2453112746
H -3.6616157008 -2.1240936485 -1.7719851462
*
