! pbe def2-sv(p) def2/J RI DEFGRID1 loosescf d4 GCP(DFT/SV(P)) printgap
%output
    printlevel normal
end
* xyz 0 1
C 1.8485177074 -0.574386596 -2.9249464723
C 3.212139004 -0.2605119339 -2.344162594
O 3.3357028633 -0.6938462047 -0.9785542165
P 2.5445543722 -0.0136377071 0.2233114721
S 2.4186652118 1.9369854804 0.1953360834
O 3.3674223868 -0.5028759896 1.4773954313
C 3.6618021106 -1.9008720646 1.7444906647
C 2.8630025071 -2.384670089 2.9385932385
S 0.7209143589 -1.1006002709 0.3117914422
C -0.1185938076 0.0639574401 1.4418023949
S -1.8884880694 -0.2585407014 1.5392025477
P -2.4697636288 0.4353630732 -0.395728378
S -1.1264705685 1.474723122 -1.3883509772
O -3.859800461 1.1483312765 -0.1535916953
C -3.9642966778 2.5498482255 0.150185915
C -3.380445912 2.8932394759 1.5066043541
O -3.0748003154 -0.8143015468 -1.1508539906
C -2.2766870119 -1.8181375408 -1.8076795071
C -2.0677515479 -3.0240854537 -0.912226027
H 1.5961638303 -1.6182347636 -2.7539149099
H 1.0898499458 0.0580561552 -2.4645290325
H 1.8587948079 -0.37534617 -3.9917451578
H 3.4107198042 0.8148848185 -2.3872667402
H 4.0040380958 -0.8060522669 -2.8597886293
H 3.4438468539 -2.4901293219 0.851667021
H 4.7333576186 -1.9245317759 1.9474136098
H 3.021876194 -1.7215846306 3.7846547802
H 1.8015992962 -2.4156000515 2.7048381312
H 3.1936782818 -3.3842606321 3.2022366031
H 0.0594675123 1.0745372979 1.0654240901
H 0.2743618715 -0.0546701479 2.4490502607
H -3.4608744186 3.1170900094 -0.6397269795
H -5.0373962223 2.7431807999 0.1154050354
H -2.2973398322 2.7740725229 1.4900874625
H -3.6123136388 3.9264105017 1.7453048862
H -3.7956496004 2.2428326908 2.2723873855
H -2.8533008038 -2.082591483 -2.6962100566
H -1.3222727093 -1.3768671337 -2.1134995408
H -1.5867107626 -3.8103960892 -1.4844931731
H -1.4347423182 -2.7692217393 -0.064966476
H -3.0258571714 -3.379801066 -0.5442748636
*
