! pbe def2-sv(p) def2/J RI DEFGRID1 loosescf d4 GCP(DFT/SV(P)) printgap
%output
    printlevel normal
end
* xyz 0 1
C 5.43406727 0.168839398 -0.7083741508
C 4.4750244803 -0.6845719288 0.098322797
O 3.3648861975 0.1091596323 0.5642805343
P 1.9442423683 0.0812471643 -0.1541798832
S 2.0158135038 0.0572536625 -2.1191481089
O 1.2028006619 1.2418460072 0.6221552104
C 1.7098506291 2.5814657715 0.7983315015
C 2.0535191378 3.2485576737 -0.5162550097
S 1.0325811152 -1.6184867161 0.6844073028
C -0.1733890101 -2.0453616151 -0.6151427048
S -1.8787411986 -1.9796404704 -0.0351236355
P -2.0827188319 0.1349400029 0.1217430478
S -1.2957211004 1.169580831 -1.3417514347
O -1.4900952577 0.6186129713 1.5005887002
C -1.9787865638 0.2234341365 2.8089377991
C -1.1427564574 -0.8962106434 3.3959703759
O -3.641342613 0.3043221197 0.382889332
C -4.6892668489 -0.3306489118 -0.3745054785
C -4.5960740729 -0.0475972054 -1.8588031207
H 5.7621868401 1.0225841278 -0.122071039
H 6.2955661826 -0.4289143784 -0.9874044884
H 4.9441253718 0.525383768 -1.6121910059
H 4.9449319236 -1.0699473329 1.0047120189
H 4.0978754725 -1.5159423919 -0.5030462377
H 0.8889290941 3.0951786024 1.3023845141
H 2.5817827576 2.5286519176 1.4545213624
H 2.3342721025 4.2817414113 -0.3381264425
H 2.8824752163 2.7291667009 -0.9958216637
H 1.1954019424 3.2174838216 -1.1861390118
H 0.0037218209 -3.0750796899 -0.9145397104
H -0.0352781467 -1.3596438315 -1.456681052
H -1.8939604421 1.1332498696 3.4056416292
H -3.0283107388 -0.0627536637 2.7238335764
H -1.4655113447 -1.0755070087 4.4166764875
H -1.2579307282 -1.812345997 2.8218193287
H -0.0915245487 -0.6193939633 3.3965032915
H -4.6450387662 -1.406008748 -0.1821650473
H -5.6016424399 0.0881637658 0.0539089572
H -3.6850717531 -0.4810645681 -2.2690461715
H -5.4529761922 -0.482263391 -2.3631116487
H -4.5749288148 1.0243796469 -2.0407481794
*
