! pbe def2-sv(p) def2/J RI DEFGRID1 loosescf d4 GCP(DFT/SV(P)) printgap
%output
    printlevel normal
end
* xyz 0 1
C 5.8018910585 -0.0067393108 0.1354800615
C 4.4988274261 -0.6875785076 -0.23277477
O 3.4178106803 0.0568876666 0.3621634105
P 1.9577482671 0.0887245901 -0.2683978513
S 1.9497790518 0.2330022589 -2.2296130526
O 1.2690247665 1.1840280634 0.6371465218
C 1.8067611318 2.4981512743 0.9002484432
C 2.0409975758 3.2901854856 -0.3683346787
S 1.0732062599 -1.6746294655 0.4697024886
C -0.1225558352 -2.036126728 -0.858958721
S -1.8293890328 -2.0468436323 -0.279953314
P -2.022319428 0.0317491757 0.1498620784
S -1.3448253099 1.2723411815 -1.2023388636
O -1.3029464952 0.2902293227 1.5275765583
C -1.595734997 -0.4518157663 2.7386375946
C -2.5063639926 0.3499446944 3.6452847229
O -3.5549351679 0.1462664877 0.5521285074
C -4.6566482041 -0.3814081296 -0.2112888736
C -4.664374816 0.10265411 -1.6456821427
H 6.6277276557 -0.5772390429 -0.2763831474
H 5.82749904 1.0011260428 -0.2698320486
H 5.9023667246 0.0438678149 1.2158238013
H 4.456052646 -1.706752901 0.1586693779
H 4.3504140346 -0.7108464843 -1.3178539654
H 1.0385727495 2.9613919401 1.522105917
H 2.7317945293 2.3783642404 1.4688416625
H 2.3475901886 4.30021558 -0.1156861421
H 2.8184548763 2.8190113071 -0.9688779278
H 1.1271848682 3.3266752271 -0.959522986
H 0.0764381481 -3.0386206374 -1.2289138883
H 0.003312674 -1.2912976414 -1.6507767195
H -2.0473245103 -1.4109496911 2.4694272491
H -0.6198019539 -0.6242907213 3.1973838578
H -3.4596272465 0.530397812 3.1555604876
H -2.6718859511 -0.20678552 4.562298201
H -2.0494555311 1.3065671294 3.882856816
H -4.6051142067 -1.4728679153 -0.1720128356
H -5.5358390984 -0.0299649284 0.3316189788
H -3.7859235842 -0.2670971034 -2.1729315868
H -5.5560641987 -0.2623422284 -2.1449224555
H -4.6499225513 1.1895562898 -1.680366487
*
