! pbe def2-sv(p) def2/J RI DEFGRID1 loosescf d4 GCP(DFT/SV(P)) printgap
%output
    printlevel normal
end
* xyz 0 1
C 5.3133569552 0.5310562668 -0.6143115703
C 4.6003705428 0.1359586511 0.6636724501
O 3.4470999044 -0.6893918447 0.4079061663
P 2.0874122886 -0.1426494679 -0.2045156268
S 2.008330444 0.2406216568 -2.1298849217
O 1.7706086098 1.102209084 0.7409500828
C 1.3024035009 2.3848404564 0.3001628654
C 2.3621324592 3.4334905294 0.5730744945
S 0.9640828009 -1.7832163174 0.4691404625
C -0.2389449503 -1.9819970909 -0.8938917364
S -1.9489998766 -1.9467958459 -0.3279402427
P -2.0529777271 0.1410555525 0.0737210131
S -1.5233277475 1.2738813817 -1.4355251308
O -1.144322512 0.4231191009 1.3352348827
C -1.4930491636 0.1704769617 2.7209283977
C -1.819906208 -1.2808137877 2.9990544377
O -3.5145810197 0.3768902604 0.6419907458
C -4.6489539589 0.6196403515 -0.2104843327
C -4.9918376889 -0.5814426074 -1.066733854
H 5.5915173797 -0.355380977 -1.1785273403
H 4.6633486839 1.1420208072 -1.2390781877
H 6.2065670927 1.0971202769 -0.3692715794
H 4.2825991271 1.0176070468 1.2265131728
H 5.2317323653 -0.4945530341 1.2922165312
H 1.0643477575 2.3351294803 -0.7679887906
H 0.3840583412 2.5829708343 0.8567845265
H 2.6294318527 3.4306757886 1.626269168
H 3.2496842948 3.2336436279 -0.0232912536
H 1.9691936772 4.4086876583 0.3044824471
H -0.0852171618 -2.9625516872 -1.336742615
H -0.0693584585 -1.1895727613 -1.6297815748
H -0.5981775762 0.4880945462 3.2593547278
H -2.334489218 0.8174796563 2.9757775077
H -1.0018187159 -1.9238242156 2.6814532438
H -1.9752246947 -1.4039347192 4.0665027641
H -2.7258158357 -1.5736947727 2.473071866
H -5.450404478 0.8582937839 0.4901835122
H -4.4291540048 1.4891180508 -0.8374386581
H -5.0919752086 -1.4717130027 -0.4513298767
H -5.9256880334 -0.3946494578 -1.5871753916
H -4.2070010478 -0.751133514 -1.80212627
*
