! r2scan-3c def2/J RI DEFGRID2 scfconv6 printgap
%output
    printlevel normal
end
%cpcm
    smd true
    smdsolvent "water"
end
* xyz 0 1
C -0.6608424118 1.0343235206 7.54411e-05
C 0.6608365913 1.0343256143 -7.47056e-05
Cl 1.6110464897 -0.4056994864 1.64901e-05
Cl -1.6110441732 -0.4057017312 -1.65866e-05
H -1.2358986907 1.9448418939 0.0002772691
H 1.2358865712 1.9448294888 -0.0002826396
*
