! pbe def2-sv(p) def2/J RI DEFGRID1 loosescf d4 GCP(DFT/SV(P)) printgap
%output
    printlevel normal
end
* xyz 0 1
C 5.9021282386 -0.7419018477 -0.9829036206
C 4.6652302702 0.106314671 -0.7681623658
O 3.6021171873 -0.7643413076 -0.3261171333
P 2.3164754571 -0.1763046221 0.3932072724
S 2.6826974872 1.03344352 1.8899122164
O 1.5438220621 -1.4752297622 0.8385065509
C 1.6392240805 -2.7782549425 0.2063834666
C 1.1958582592 -2.7664088545 -1.2404841665
S 1.2273191923 0.7336657268 -1.2046064376
C 0.251638181 1.8589028647 -0.1735046472
S -0.709928928 1.0120485629 1.1115885908
P -2.3625111752 0.4224489889 -0.0860219987
S -2.0082595635 -0.7620475585 -1.6104721963
O -2.9434403231 1.8622595138 -0.4076101097
C -4.3352450991 2.1429427386 -0.6802019937
C -4.8418650436 1.4165039152 -1.9084852075
O -3.4139418126 -0.1555064454 0.955275075
C -3.4442301044 -1.5539094473 1.2895211084
C -2.2565404233 -1.9518064144 2.1415541675
H 5.7040886482 -1.5092604812 -1.7255101616
H 6.7110791043 -0.107214872 -1.329217131
H 6.1947518487 -1.217987654 -0.0512900566
H 4.3440343488 0.5899282872 -1.6944005332
H 4.8297467396 0.8707823859 -0.0015870267
H 2.6719545836 -3.1197217139 0.2948457039
H 0.9869129513 -3.399687632 0.8221504859
H 1.8570176897 -2.140018753 -1.8358444643
H 1.2262076275 -3.7801159854 -1.6271498842
H 0.1817490992 -2.384350803 -1.3359134163
H -0.4131609112 2.4075869029 -0.8357542115
H 0.9272178474 2.5281465162 0.3584317682
H -4.917166531 1.8727201256 0.203341238
H -4.3507412337 3.225250551 -0.8194341421
H -5.8626741494 1.7240244872 -2.1125513667
H -4.2179356032 1.6453495617 -2.7693732495
H -4.820418082 0.3399359457 -1.7451415967
H -4.3855706682 -1.6787975015 1.8259845568
H -3.4615615561 -2.131724946 0.3591764071
H -2.3548424494 -2.9914258886 2.4368391272
H -1.3331117074 -1.8283188745 1.5754622827
H -2.1990654462 -1.3265008585 3.0291266692
*
