! r2scan-3c def2/J RI DEFGRID2 scfconv6 printgap
%output
    printlevel normal
end
%cpcm
    smd true
    smdsolvent "water"
end
* xyz 0 1
C 5.2254898648 -2.4787305143 -0.9927875659
C 4.1369025442 -1.4912004361 -1.3604007354
O 3.3776839188 -1.2061988559 -0.1658089898
P 2.398877856 0.0407755746 -0.0969297498
S 3.1770868269 1.7738565561 -0.5539886449
O 1.8711406668 -0.0085069859 1.3828851996
C 1.3511170084 -1.2148123784 1.9966917317
C 2.3994801048 -1.8433103424 2.8904861842
S 0.7816319759 -0.5813671426 -1.3529190273
C 0.0566333942 1.0600123415 -1.5392630097
S -0.6343444822 1.6965187882 0.0134672272
P -2.3570825427 0.4801570521 0.0053507655
S -3.2391193651 0.2401768082 -1.733219519
O -3.2793925446 1.1133036623 1.1331975783
C -4.1259762863 2.2549110098 0.8882234318
C -5.2875069125 2.1943748681 1.859892146
O -1.8419193079 -0.8329465064 0.7168349723
C -2.574491039 -2.0822201519 0.6269075049
C -1.5914065103 -3.2202948465 0.4461407591
H 4.7847891437 -3.3908342268 -0.6012750897
H 5.8061598139 -2.7125362572 -1.8789419865
H 5.8801705016 -2.0494776458 -0.239563937
H 3.45390919 -1.905433429 -2.1067613063
H 4.5549595695 -0.5526417374 -1.7382314133
H 0.479204557 -0.8826223826 2.5642931769
H 1.036531237 -1.9028874369 1.2078027856
H 1.9709964414 -2.7051321393 3.3925558915
H 3.2544862259 -2.1588414593 2.2984641347
H 2.7337716576 -1.1242435275 3.6332543112
H -0.7355845731 0.9819898444 -2.2845988107
H 0.8314198414 1.7624085579 -1.8475032626
H -3.5261905183 3.1564752936 1.0360058642
H -4.4713321021 2.2184655394 -0.1506169917
H -5.9179711121 3.0653979093 1.7145661011
H -5.8728538196 1.295485176 1.6878497665
H -4.9161766278 2.1843145983 2.8805168612
H -3.1455667938 -2.1846394366 1.5513983158
H -3.2640958994 -2.0217388952 -0.2217752406
H -0.9864708112 -3.0515352551 -0.4417792161
H -0.9421353257 -3.300079656 1.3128294013
H -2.1453931301 -4.1460583583 0.3276549742
*
