! pbe def2-sv(p) def2/J RI DEFGRID1 loosescf d4 GCP(DFT/SV(P)) printgap
%output
    printlevel normal
end
* xyz 0 1
C 1.372879596 -2.1153283821 1.9862416163
C 2.8592453722 -1.9298806064 1.7616098525
O 3.1771000411 -0.6085269414 1.2887785655
P 2.7920915072 -0.0979502888 -0.1701460186
S 2.9770896133 -1.4096390035 -1.6068202673
O 3.7745926171 1.1217515131 -0.3412413151
C 3.8738151976 2.1831511985 0.6433283595
C 4.582485698 3.351043094 -0.0094434501
S 0.8698138332 0.8404471087 0.0318759449
C -0.0307264469 -0.0288460192 -1.2758857928
S -1.241822957 -1.2080331283 -0.6363091945
P -2.7320892205 0.2482097074 -0.1749093413
S -2.9992298417 1.6427923908 -1.5191679603
O -2.3093472331 0.8546074417 1.2149443617
C -2.1040290296 0.0486732666 2.4052420168
C -1.1550528487 0.8023394722 3.3135516388
O -4.0072372099 -0.6188847516 0.2125449315
C -4.9709054704 -1.0728577712 -0.7553101163
C -4.3763060435 -2.0508580733 -1.7475534141
H 0.9884142939 -1.3266677361 2.6276502488
H 0.8442494277 -2.0947071406 1.0335817393
H 1.1997717515 -3.0779438649 2.4563917285
H 3.2342408734 -2.6569957841 1.0348383072
H 3.4203154557 -2.0127342932 2.6936007669
H 2.8633657829 2.4546774813 0.9633419376
H 4.4327774186 1.7962560273 1.497197352
H 5.5633742625 3.0419219034 -0.3588965216
H 4.0076517915 3.7117044493 -0.8578729333
H 4.6932309828 4.1511770789 0.7151849165
H 0.6820950977 -0.5928501243 -1.8819806006
H -0.5573722481 0.7181404574 -1.8713083537
H -3.0788490232 -0.1010501027 2.8724850527
H -1.6946721762 -0.9207181767 2.1055477117
H -1.5799326824 1.7666132511 3.5763217213
H -0.9895179179 0.2234480383 4.2165748576
H -0.2084245991 0.9710187661 2.8060079952
H -5.7474183772 -1.5383066005 -0.1465634385
H -5.3768040775 -0.1985541427 -1.2731485527
H -3.8714564738 -2.8608289712 -1.2268801704
H -5.1687486831 -2.4584010104 -2.3670439985
H -3.6571405061 -1.5422693964 -2.3881554076
*
