  18
  -47.5799650700000       5.407318819451937E-002 !mtd9
 C         -0.6919837011       -3.0127209628       -0.0045842764
 C          0.6913925417       -3.0128799430        0.0045787278
 C          1.3857810796       -1.8141218710        0.0122081969
 C          0.6996018422       -0.6058819594        0.0115192611
 C         -0.6996165610       -0.6057132492       -0.0118552031
 C         -1.3860769609       -1.8137944668       -0.0123589073
 C         -1.5009317154        0.6674140375       -0.0028010788
 F         -1.5715616560        1.2274490423        1.2239732566
 F         -1.0292029382        1.6196472970       -0.8268950365
 F         -2.7760976071        0.4710572281       -0.3776086195
 C          1.5011021042        0.6671408935        0.0027177117
 F          1.0300531770        1.6186343749        0.8281439698
 F          2.7765481073        0.4703750255        0.3763054793
 F          1.5707824937        1.2283078567       -1.2235614498
 H         -1.2388264532       -3.9411280312       -0.0067930434
 H          1.2380092149       -3.9414246500        0.0070407863
 H          2.4638112076       -1.8094909416        0.0240231572
 H         -2.4641097828       -1.8089014364       -0.0241525124
  18
  -47.5799649900000       5.406861079079652E-002 !mtd5
 C         -0.6857065306       -3.0127696901       -0.0928200852
 C          0.6851364451       -3.0129036535        0.0930594137
 C          1.3736431613       -1.8140957685        0.1831561399
 C          0.6942003067       -0.6059085189        0.0869291198
 C         -0.6944067596       -0.6057672786       -0.0869958803
 C         -1.3740362564       -1.8138738117       -0.1830286713
 C         -1.4864136489        0.6674282599       -0.2083846629
 F         -1.3825448997        1.2288483462       -1.4322437963
 F         -2.8017523082        0.4708763617       -0.0184066501
 F         -1.1361632695        1.6187356337        0.6751033869
 C          1.4865314771        0.6670668944        0.2083762687
 F          2.8017947240        0.4703164724        0.0177639084
 F          1.1362459304        1.6187956262       -0.6748206633
 F          1.3831475572        1.2280780028        1.4323736991
 H         -1.2273662815       -3.9412111785       -0.1673629535
 H          1.2265811321       -3.9414768425        0.1680289378
 H          2.4425747941       -1.8094291594        0.3234068506
 H         -2.4429728523       -1.8090431665       -0.3232107408
  18
  -47.5799649300000       5.406517799239576E-002 !mtd9
 C         -0.6707239301       -3.0127295175        0.1700271578
 C          0.6702756481       -3.0128240890       -0.1698205419
 C          1.3441009449       -1.8140321947       -0.3375144908
 C          0.6799201594       -0.6058158398       -0.1650477166
 C         -0.6800053506       -0.6057405079        0.1650524414
 C         -1.3443918768       -1.8138194133        0.3375873523
 C         -1.4532082357        0.6674315856        0.3756029344
 F         -2.7816796047        0.4709184690        0.3346516501
 F         -1.2121295518        1.2277529460        1.5803552626
 F         -1.2047107357        1.6193618165       -0.5411476438
 C          1.4532919452        0.6671805539       -0.3756680565
 F          1.2123134272        1.2275978358       -1.5803760945
 F          1.2049695895        1.6191920398        0.5411238641
 F          2.7817621362        0.4705113154       -0.3347152069
 H         -1.2005283377       -3.9411580263        0.3053495300
 H          1.1998336916       -3.9413112204       -0.3056420861
 H          2.3902311369       -1.8093946037       -0.5981013222
 H         -2.3906106233       -1.8089899820        0.5978220521
  18
  -47.5799647800000       5.405659694927310E-002 !mtd10
 C         -0.6847483918       -3.0121914440       -0.1155974395
 C          0.6881839799       -3.0131355473        0.0542137918
 C          1.3768816586       -1.8147953824        0.1487301066
 C          0.6955723816       -0.6061918549        0.0727629570
 C         -0.6949000457       -0.6053792274       -0.0852995036
 C         -1.3748251851       -1.8129745586       -0.1858233573
 C         -1.4890757520        0.6683337893       -0.1849916794
 F         -1.1294104844        1.6111659999        0.7040087437
 F         -1.3995067662        1.2417933618       -1.4042768048
 F         -2.8021048225        0.4689468613        0.0181640342
 C          1.4883095172        0.6661398881        0.1985494357
 F          2.8014744921        0.4725087204       -0.0091885496
 F          1.1272061880        1.6268204077       -0.6704280995
 F          1.3985825113        1.2139801170        1.4295554490
 H         -1.2266598474       -3.9402293119       -0.1935042488
 H          1.2311297303       -3.9419586750        0.1132139987
 H          2.4473671601       -1.8107349427        0.2766495488
 H         -2.4453131755       -1.8075368013       -0.3136446197
  18
  -47.5799646600000       5.404973309588012E-002 !mtd1
 C         -0.6794662000       -3.0022905883       -0.2826586509
 C          0.6948550090       -3.0094563130       -0.1245169525
 C          1.3810961921       -1.8171786314        0.0391707765
 C          0.6957142502       -0.6085032290        0.0463785788
 C         -0.6927958123       -0.6002975422       -0.1277557239
 C         -1.3719213972       -1.8023924023       -0.2840742027
 C         -1.4936643418        0.6731207895       -0.1199921938
 F         -0.9380085883        1.6757786616       -0.8231162444
 F         -2.7203794893        0.5082530546       -0.6424803029
 F         -1.6977797392        1.1506038507        1.1265134509
 C          1.4902037858        0.6583773689        0.2102469455
 F          0.9294414217        1.5552377079        1.0407272825
 F          2.7175912096        0.4308665670        0.7072019580
 F          1.6923932201        1.2994598056       -0.9609898806
 H         -1.2203677409       -3.9259129914       -0.4064943807
 H          1.2405395601       -3.9385466722       -0.1261955697
 H          2.4515630351       -1.8183041004        0.1673184725
 H         -2.4424179671       -1.7917471809       -0.4115509807
  18
  -47.5799646300000       5.404801726851112E-002 !mtd6
 C         -0.6953935379       -3.0094057043        0.1240148581
 C          0.6789877419       -3.0025004164        0.2817413969
 C          1.3715869441       -1.8026897755        0.2834308723
 C          0.6925492773       -0.6004378247        0.1278139218
 C         -0.6959508543       -0.6084252894       -0.0462604115
 C         -1.3815090745       -1.8169975581       -0.0392442462
 C         -1.4900135429        0.6587031907       -0.2105537128
 F         -1.6914524086        1.3008644873        0.9600946346
 F         -0.9291103874        1.5544799123       -1.0421140886
 F         -2.7176968999        0.4313116174       -0.7068650229
 C          1.4936852221        0.6728802549        0.1206428925
 F          2.7200239651        0.5076256391        0.6440476376
 F          1.6986837492        1.1504942048       -1.1255191067
 F          0.9376841687        1.6756009493        0.8236916900
 H         -1.2411808196       -3.9384319746        0.1253098489
 H          1.2197982267       -3.9262380681        0.4050844527
 H          2.4420894602       -1.7921920210        0.4108089295
 H         -2.4519619663       -1.8179784100       -0.1674936290
  18
  -47.5799645400000       5.404287011362074E-002 !md4
 C         -0.6694279256       -3.0128254052        0.1747463623
 C          0.6690659471       -3.0128592479       -0.1748858144
 C          1.3401066619       -1.8140388256       -0.3531667597
 C          0.6751303201       -0.6058578496       -0.1835376946
 C         -0.6753476703       -0.6058034023        0.1833442457
 C         -1.3404018295       -1.8139374901        0.3530101246
 C         -1.4542919327        0.6673573006        0.3713410463
 F         -2.5994066366        0.4708451723        1.0459457358
 F         -0.7951998695        1.6187372724        1.0562088391
 F         -1.8221145270        1.2285963679       -0.8005296545
 C          1.4543087002        0.6672014107       -0.3713410958
 F          0.7952681004        1.6192497072       -1.0552251470
 F          1.8230680439        1.2275858336        0.8006817104
 F          2.5989633850        0.4705950283       -1.0467574292
 H         -1.1987265093       -3.9412657777        0.3117654595
 H          1.1983532069       -3.9413474185       -0.3118089364
 H          2.3820647497       -1.8093254774       -0.6299594457
 H         -2.3823743743       -1.8091633863        0.6297289829
  18
  -47.5799645400000       5.404287011362074E-002 !mtd2
 C         -0.6822426077       -2.9911652567        0.3784600657
 C          0.6988733900       -2.9962725951        0.2990002566
 C          1.3885056810       -1.8079517116        0.1213953203
 C          0.6997548415       -0.6053610270        0.0210848158
 C         -0.6964850252       -0.5986661021        0.1150773941
 C         -1.3785395608       -1.7970431517        0.2864068462
 C         -1.5007593026        0.6677396446        0.0034234719
 F         -2.7554916337        0.5180263604        0.4598957673
 F         -0.9915585278        1.7045217502        0.6922405376
 F         -1.6330219946        1.0878423498       -1.2730856245
 C          1.4970497612        0.6584162250       -0.1534323065
 F          1.6268966164        1.3532537137        0.9970882871
 F          2.7526113598        0.4172955434       -0.5665016784
 F          0.9823416141        1.5125845314       -1.0555375199
 H         -1.2255071506       -3.9119365798        0.5126455007
 H          1.2473371721       -3.9208297399        0.3727981759
 H          2.4645376802       -1.8077238883        0.0544210126
 H         -2.4545929858       -1.7878162231        0.3520640744
  18
  -47.5799645100000       5.404115450452579E-002 !gc
 C         -0.6856720780       -2.9837461930        0.4274873535
 C          0.6976814046       -2.9796237208        0.4365335525
 C          1.3895063799       -1.7906468470        0.2721829135
 C          0.7007211034       -0.5964455251        0.0985020149
 C         -0.6984906231       -0.6026279318        0.0755817753
 C         -1.3823521958       -1.7997915747        0.2480649259
 C         -1.5023082382        0.6570532600       -0.0979995178
 F         -2.7775163002        0.4064600856       -0.4386675494
 F         -1.5725901444        1.3884168934        1.0349975959
 F         -1.0332137129        1.4809746217       -1.0518072446
 C          1.4995947061        0.6637551290       -0.0932755197
 F          2.7753362151        0.5254339377        0.3051164092
 F          1.5687064426        1.0423319496       -1.3875902484
 F          1.0262520345        1.7232932509        0.5862118739
 H         -1.2305092320       -3.9041381539        0.5579408616
 H          1.2462866467       -3.8970920917        0.5717306062
 H          2.4675201071       -1.7820475875        0.2831620994
 H         -2.4603865124       -1.7989657760        0.2356965392
  18
  -47.5799645000000       5.404058264679492E-002 !gc
 C         -0.6742091395       -3.0042502672        0.2737085028
 C          0.7020369784       -3.0075055813        0.1332120763
 C          1.3876044692       -1.8128617237       -0.0154860241
 C          0.6997458603       -0.6056259288       -0.0239163578
 C         -0.6938043371       -0.6032886173        0.1041381286
 C         -1.3706782333       -1.8067608905        0.2596793996
 C         -1.4955270729        0.6695863623        0.1144141876
 F         -2.8025101362        0.4517659224       -0.1080615343
 F         -1.4372207386        1.3097262283        1.3020418726
 F         -1.1192788880        1.5641626305       -0.8164440503
 C          1.4894233146        0.6619690901       -0.2047547394
 F          1.1069493222        1.6669569152        0.6027502919
 F          2.7990720528        0.4871287108        0.0389654072
 F          1.4219773553        1.1405354218       -1.4656653912
 H         -1.2137487443       -3.9292152287        0.3933931100
 H          1.2500308393       -3.9352180581        0.1392002199
 H          2.4605647439       -1.8103702234       -0.1206492693
 H         -2.4436992913       -1.7997490415        0.3640727920
  18
  -47.5799644900000       5.404001079511540E-002 !mtd12
 C         -0.6993372212       -2.9961691859       -0.2993109119
 C          0.6817425007       -2.9911997143       -0.3791432496
 C          1.3782151916       -1.7971579226       -0.2870952461
 C          0.6963841173       -0.5987385000       -0.1152385955
 C         -0.6998561047       -0.6052886344       -0.0209492150
 C         -1.3887779659       -1.8077754340       -0.1213542205
 C         -1.4969489045        0.6585438764        0.1535290739
 F         -0.9823300875        1.5128311250        1.0556865302
 F         -1.6262567128        1.3534805640       -0.9971068175
 F         -2.7526552589        0.4177060546        0.5661695112
 C          1.5008476188        0.6674934272       -0.0032178201
 F          0.9921148886        1.7044836284       -0.6919638175
 F          1.6327887027        1.0873496817        1.2734556470
 F          2.7556510184        0.5176490665       -0.4593213095
 H         -1.2479447110       -3.9205585056       -0.3734647581
 H          1.2249132915       -3.9119290765       -0.5140930369
 H          2.4542429171       -1.7880517413       -0.3533005366
 H         -2.4647796129       -1.8074539498       -0.0540293166
  18
  -47.5799644800000       5.403943894948713E-002 !gc
 C         -0.6981835777       -2.9795474830       -0.4360862926
 C          0.6851767006       -2.9838276505       -0.4275865086
 C          1.3820639260       -1.7999412521       -0.2485224897
 C          0.6984046278       -0.6026946051       -0.0758051130
 C         -0.7008003968       -0.5963073503       -0.0984804534
 C         -1.3898011874       -1.7904419365       -0.2718097649
 C         -1.4995252618        0.6640177716        0.0930944852
 F         -1.0254452188        1.7235658502       -0.5858556888
 F         -2.7750397016        0.5261037472       -0.3062156461
 F         -1.5693978038        1.0423314463        1.3874394533
 C          1.5024457484        0.6567923463        0.0981394624
 F          1.5735330223        1.3881063840       -1.0348152281
 F          1.0330356967        1.4808264515        1.0517025045
 F          2.7774129458        0.4058857611        0.4395155943
 H         -1.2469465172       -3.8968795088       -0.5715579522
 H          1.2298549387       -3.9042018144       -0.5588223265
 H          2.4601032068       -1.7992341739       -0.2364926539
 H         -2.4678175123       -1.7816796271       -0.2825052211
  18
  -47.5799644700000       5.403886710991008E-002 !gc
 C         -0.7024825311       -3.0073759859       -0.1330539224
 C          0.6737204677       -3.0043030540       -0.2740080673
 C          1.3703459244       -1.8069033310       -0.2602549777
 C          0.6936922753       -0.6033443779       -0.1043965041
 C         -0.6998308482       -0.6054791706        0.0238401457
 C         -1.3878631882       -1.8126236237        0.0156232709
 C         -1.4893621357        0.6622272766        0.2045316290
 F         -1.4227022017        1.1404101494        1.4656452362
 F         -1.1062354358        1.6673308840       -0.6024450041
 F         -2.7988884898        0.4876146907       -0.0400971601
 C          1.4956971359        0.6693502894       -0.1141389345
 F          1.4382138822        1.3096428710       -1.3017129185
 F          1.1191545247        1.5638951874        0.8166205281
 F          2.8025153452        0.4511852836        0.1090564196
 H         -1.2506431126       -3.9349905398       -0.1393566893
 H          1.2130164603       -3.9292864506       -0.3946004208
 H          2.4433173138       -1.8000067046       -0.3651695895
 H         -2.4607971929       -1.8099631875        0.1210625476
  18
  -47.5799644400000       5.403715162748555E-002 !mtd3
 C         -0.6872036637       -3.0127381460       -0.0812695685
 C          0.6867026010       -3.0128687230        0.0805820649
 C          1.3766661569       -1.8140847685        0.1588748133
 C          0.6956294890       -0.6058619865        0.0748435273
 C         -0.6957612032       -0.6057404839       -0.0748766791
 C         -1.3769784320       -1.8138322178       -0.1593053155
 C         -1.4898090802        0.6674020418       -0.1826940682
 F         -1.1239360774        1.6191621309        0.6941218742
 F         -1.4076348749        1.2281092465       -1.4084176622
 F         -2.8016169009        0.4709902825        0.0308581111
 C          1.4898823309        0.6671603342        0.1828817567
 F          1.4078035658        1.2277190288        1.4086829424
 F          2.8017065563        0.4704608081       -0.0306641210
 F          1.1242794512        1.6190336297       -0.6938960592
 H         -1.2301150363       -3.9411545570       -0.1465745896
 H          1.2294790488       -3.9413891941        0.1455971292
 H          2.4479038565       -1.8094241895        0.2802499276
 H         -2.4482208541       -1.8089816036       -0.2807044547
  18
  -47.5799644400000       5.403715162748555E-002 !md3
 C         -0.6762043628       -2.9912574917        0.3883316591
 C          0.7019428596       -2.9985129209        0.2680387257
 C          1.3882044408       -1.8107861043        0.0740987431
 C          0.6990007295       -0.6066582246       -0.0017077386
 C         -0.6938481199       -0.5978279287        0.1336440627
 C         -1.3727427390       -1.7956034221        0.3209863640
 C         -1.4987834829        0.6702817655        0.0498334713
 F         -2.7396388401        0.5212969160        0.5428589495
 F         -0.9675852748        1.7041372664        0.7262688533
 F         -1.6680831928        1.0944698161       -1.2209708412
 C          1.4931001556        0.6562920098       -0.1951692740
 F          2.7356544006        0.4146212945       -0.6453109582
 F          0.9538306166        1.5145662156       -1.0790109702
 F          1.6575099126        1.3470453263        0.9534513134
 H         -1.2170181591       -3.9114806769        0.5356830357
 H          1.2506602615       -3.9241876627        0.3227948444
 H          2.4617472501       -1.8122256399       -0.0246640729
 H         -2.4463678787       -1.7847515616        0.4186043844
  18
  -47.5799644000000       5.403486440270549E-002 !gc
 C         -0.6684780268       -3.0127709006       -0.1788040112
 C          0.6678206817       -3.0129023468        0.1790154528
 C          1.3378386369       -1.8140959432        0.3614476149
 C          0.6739931177       -0.6058895225        0.1876877647
 C         -0.6741173607       -0.6057587082       -0.1877120320
 C         -1.3382055665       -1.8138345180       -0.3614507430
 C         -1.4517178587        0.6674571315       -0.3809570208
 F         -0.7875771356        1.6189285608       -1.0607415421
 F         -2.5919427880        0.4710082044       -1.0640702402
 F         -1.8280619788        1.2283552894        0.7882583648
 C          1.4518479507        0.6671689200        0.3809585481
 F          2.5919524629        0.4705109564        1.0642092960
 F          1.8284455534        1.2278208367       -0.7883023468
 F          0.7878818179        1.6188938523        1.0605571395
 H         -1.1969147344       -3.9411982650       -0.3194092114
 H          1.1962546891       -3.9414402922        0.3189128550
 H          2.3780037475       -1.8094182770        0.6448850322
 H         -2.3783629248       -1.8089570896       -0.6449163305
  18
  -47.5799643800000       5.403372082641676E-002 !mtd12
 C         -0.7026046846       -2.9983044917       -0.2688845211
 C          0.6756648895       -2.9914547483       -0.3874876593
 C          1.3724388425       -1.7959590436       -0.3196865159
 C          0.6936946736       -0.5979297616       -0.1333918790
 C         -0.6992415965       -0.6064824015        0.0011168946
 C         -1.3887366654       -1.8103792912       -0.0756070649
 C         -1.4929751540        0.6565229680        0.1955239384
 F         -1.6577098431        1.3484327673       -0.9523148836
 F         -2.7354969693        0.4147524791        0.6459615367
 F         -0.9531039859        1.5139618751        1.0799279274
 C          1.4989121645        0.6700033694       -0.0502161061
 F          0.9671816671        1.7040779800       -0.7259244880
 F          1.6697951374        1.0940642311        1.2203183271
 F          2.7391465818        0.5207869010       -0.5448729498
 H         -1.2514766072       -3.9238387969       -0.3243011283
 H          1.2163884172       -3.9118580002       -0.5340089250
 H          2.4461568854       -1.7854235672       -0.4163708474
 H         -2.4624128616       -1.8114424827        0.0219404961
  18
  -47.5799643200000       5.403029024316841E-002 !gc
 C         -0.6887995586       -3.0130170690       -0.0541531751
 C          0.6842078436       -3.0123594185        0.1150819663
 C          1.3745635053       -1.8132769418        0.1850057066
 C          0.6948171054       -0.6055525777        0.0849574894
 C         -0.6957160693       -0.6060799287       -0.0726212715
 C         -1.3773138983       -1.8145341003       -0.1483171141
 C         -1.4881425949        0.6664189604       -0.1982225028
 F         -1.3978442839        1.2147418814       -1.4290545259
 F         -2.8014711686        0.4730037823        0.0088429718
 F         -1.1272259266        1.6267031579        0.6712782074
 C          1.4891945386        0.6680417221        0.1848227106
 F          1.3995965444        1.2414503995        1.4041040164
 F          2.8022034057        0.4684424928       -0.0182250432
 F          1.1297500481        1.6109838687       -0.7041489825
 H         -1.2319809240       -3.9417201866       -0.1129039336
 H          1.2259804182       -3.9405186509        0.1924871105
 H          2.4451059017       -1.8080762606        0.3123762786
 H         -2.4478434941       -1.8102537619       -0.2758284529
  18
  -47.5780055100000       6.798773187333608E-003 !mtd1
 C         -0.7055416228       -2.9687878768        0.2268930340
 C          0.6758030872       -2.9827313647        0.3099424669
 C          1.3876497903       -1.7968186967        0.2453770507
 C          0.7275345618       -0.5814251568        0.0966346801
 C         -0.6674030979       -0.5677001644        0.0122597038
 C         -1.3729149801       -1.7658081531        0.0783655800
 C         -1.5272221349        0.6555987220       -0.1522179303
 F         -2.2685158679        0.5803765048       -1.2793258932
 F         -2.4206898140        0.7606666052        0.8556864274
 F         -0.9051914020        1.8369706626       -0.2072788157
 C          1.5531816434        0.6754494653        0.0336165757
 F          2.8700617892        0.4314606644        0.1291084409
 F          1.4017276581        1.3527340384       -1.1220556320
 F          1.2800956455        1.5397329053        1.0315958760
 H         -1.2672102516       -3.8868666638        0.2764474173
 H          1.2070959670       -3.9129627849        0.4256123259
 H          2.4636561434       -1.8080138180        0.3105401375
 H         -2.4493490932       -1.7396614155        0.0116695804
  18
  -47.5780049500000       6.794745501896671E-003 !mtd4
 C         -0.6763240729       -2.9979378867        0.0665403850
 C          0.6945587127       -2.9692079733        0.2542070651
 C          1.3590866042       -1.7558434484        0.2815113182
 C          0.6611384916       -0.5620953872        0.1217909994
 C         -0.7231452092       -0.5908258051       -0.0681862653
 C         -1.3805064738       -1.8165466771       -0.0936549854
 C         -1.5401178182        0.6603833328       -0.2484953635
 F         -1.4792291146        1.4912397607        0.8112427016
 F         -1.1776670088        1.3792645848       -1.3297638558
 F         -2.8465355483        0.4017210472       -0.4189711847
 C          1.5168223162        0.6739725072        0.1743108118
 F          2.1860612907        0.7521392344        1.3453770305
 F          2.4720051996        0.6447375104       -0.7808618779
 F          0.9000283888        1.8507819222        0.0320808498
 H         -1.2052860425       -3.9363577957        0.0434967961
 H          1.2503416186       -3.8836471151        0.3794670260
 H          2.4273352182       -1.7178970086        0.4270655414
 H         -2.4482720570       -1.8394273325       -0.2400193277
  18
  -47.5780048500000       6.794026523465974E-003 !input
 C         -0.6906091005       -2.9727164208       -0.2216523547
 C          0.6612570918       -3.0011122631        0.0733309276
 C          1.3579600599       -1.8182167879        0.2537698696
 C          0.7120345301       -0.5913051733        0.1415386906
 C         -0.6530873388       -0.5629265325       -0.1564093819
 C         -1.3436629841       -1.7581913242       -0.3356716239
 C         -1.4946663193        0.6742974596       -0.3108792255
 F         -0.8843204595        1.8523807172       -0.1520427924
 F         -2.0680963174        0.7223932368       -1.5332882346
 F         -2.5229758295        0.6749997894        0.5655123521
 C          1.5201565704        0.6615655177        0.3480767163
 F          2.8083366579        0.4031206361        0.6247835323
 F          1.5448143176        1.4618164856       -0.7364076200
 F          1.0807953584        1.4124906468        1.3777281029
 H         -1.2404709149       -3.8883331307       -0.3633729599
 H          1.1810711107       -3.9404652280        0.1649408281
 H          2.4109278184       -1.8408252152        0.4836016695
 H         -2.3971083895       -1.7204590198       -0.5651020353
  18
  -47.5780045900000       6.792157535591077E-003 !mtd10
 C         -0.7170723538       -2.9395777503       -0.4558035460
 C          0.6665969984       -2.9634988520       -0.4721065780
 C          1.3837541514       -1.7926338028       -0.2933343176
 C          0.7267426976       -0.5823698919       -0.0965905487
 C         -0.6705038518       -0.5582618870       -0.0817691689
 C         -1.3814261246       -1.7414304279       -0.2617683512
 C         -1.5276278970        0.6624070719        0.1136521002
 F         -0.8994683041        1.8279423544        0.2933417299
 F         -2.3514232897        0.8507461906       -0.9407513573
 F         -2.3427448849        0.5185830968        1.1814698788
 C          1.5584078928        0.6576554786        0.0941330540
 F          1.3433231845        1.5918180760       -0.8538084339
 F          1.3540644543        1.2554776484        1.2848136661
 F          2.8762179558        0.4053578124        0.0478199791
 H         -1.2830227037       -3.8459389296       -0.5936612802
 H          1.1954712108       -3.8900229299       -0.6235686661
 H          2.4615194246       -1.8117462596       -0.3054643570
 H         -2.4596222566       -1.7072804344       -0.2474867062
