! r2scan-3c def2/J RI DEFGRID2 scfconv6 printgap
%output
    printlevel normal
end
* xyz 0 1
C 0.0586325224 -1.5875623649 2.9361286206
C 1.3852987296 -1.5369664862 2.2076318008
O 1.5052556567 -0.2568261214 1.5471903478
P 2.315690464 -0.0237904162 0.210226756
S 3.1063567142 -1.636815032 -0.584592562
O 3.2936948994 1.1077660411 0.7370508512
C 4.1587878785 1.8904337617 -0.1091499631
C 5.4466915252 1.1558927265 -0.4275977962
S 1.0223304629 1.0711775 -1.0689660957
C 0.3062466043 -0.3629119516 -1.9138241104
S -0.6218302959 -1.4369339524 -0.7902175903
P -2.0747196661 0.0078847353 -0.2380853475
S -2.6815341336 1.1793914483 -1.6932118712
O -1.4039842049 0.7249007704 0.9995425575
C -1.5858267318 2.1250564637 1.2783823001
C -2.9525126585 2.3823400101 1.8766240169
O -3.162537628 -0.8742817335 0.5086933865
C -4.0103628908 -1.8208544784 -0.1729223479
C -5.2955637892 -1.1672588795 -0.6428491198
H -0.0185426216 -2.534747938 3.4599547114
H -0.0040680438 -0.7717382253 3.6502117399
H -0.7662524661 -1.4997690086 2.233185097
H 1.4643336854 -2.3335492875 1.4600142853
H 2.2218260243 -1.6206113814 2.9054969373
H 3.620045492 2.1573224076 -1.0231752715
H 4.3514774009 2.7918762411 0.4757854614
H 5.2408041156 0.2583090895 -1.0063912391
H 6.0959589203 1.8073513838 -1.0035982039
H 5.9496959465 0.8677993708 0.4915207272
H 1.1023390138 -0.9720610409 -2.3414839932
H -0.358844063 0.0291411428 -2.6829576019
H -0.7789872961 2.365209277 1.9723965417
H -1.4528653921 2.6909354505 0.3499798774
H -3.7218110288 2.1211984371 1.1506160275
H -3.0926426761 1.7785383066 2.768971034
H -3.0457779703 3.4337025607 2.1294022206
H -3.4605023809 -2.2584844609 -1.0113022866
H -4.2079510651 -2.5924140904 0.5735709316
H -5.9311506208 -1.9182238858 -1.1008457567
H -5.8170017563 -0.7202620376 0.1989511202
H -5.0809837426 -0.3913559697 -1.3743541936
*
