! pbe def2-sv(p) def2/J RI DEFGRID1 loosescf d4 GCP(DFT/SV(P)) printgap
%output
    printlevel normal
end
* xyz 0 1
C 4.9374923591 0.3244274021 -1.2105855106
C 4.4749298942 -1.0837261723 -1.5467127971
O 3.039523605 -1.1946561262 -1.4888126941
C 2.4714785212 -1.3866387462 -0.3131559656
O 3.0704038495 -1.4961327086 0.731308937
C 0.9616523212 -1.5021871151 -0.4423313291
C 0.3755470149 -0.2696093998 -1.1339580361
H 0.8480589633 -0.1344209181 -2.1104291662
C 0.5821368335 0.9722083012 -0.2904214965
O -0.342332302 1.6314524719 0.142792731
O 1.8471066019 1.2270732552 -0.0986306907
C 2.2015301113 2.277095747 0.8285786088
C 2.2436099926 1.7258632617 2.2440796349
S -1.4026893904 -0.4494395501 -1.469535642
P -2.3052300427 0.0487175437 0.3982479946
S -1.3981814518 -0.3569414967 2.0895141718
O -2.9770071598 1.4777099294 0.3304845522
C -3.8289489048 1.8830937704 -0.7576799525
O -3.6417488519 -0.8396064548 0.236044284
C -3.6137614328 -2.2644715617 0.3330636348
H 4.6968249521 0.5553014857 -0.176127022
H 6.0118525831 0.390421323 -1.347241881
H 4.446651833 1.0452600056 -1.8586043776
H 4.9077847217 -1.8066977873 -0.8494507917
H 4.7222131492 -1.3506243442 -2.5742307216
H 0.5376532914 -1.6278884304 0.5565581793
H 0.7345471372 -2.3815502167 -1.0471324375
H 3.1843325317 2.6123064531 0.4976759184
H 1.4688648554 3.0836214797 0.7421078058
H 1.2483482168 1.4148827099 2.5587006226
H 2.9005187395 0.860028947 2.2895211116
H 2.6050108716 2.4912700345 2.9221898254
H -4.0755776369 2.9208460117 -0.5487554692
H -4.7251032835 1.2653680773 -0.7773134855
H -3.2935249519 1.7976645952 -1.7033555406
H -3.0280527478 -2.5695932843 1.2022594359
H -3.1857220937 -2.6893403226 -0.5747339123
H -4.649820416 -2.5724148743 0.4487512247
*
