! pbe def2-sv(p) def2/J RI DEFGRID1 loosescf d4 GCP(DFT/SV(P)) printgap
%output
    printlevel normal
end
* xyz 0 1
C 0.5976851377 1.7038353328 -0.0571838529
C 1.3982569501 0.4083232672 -0.273642469
H 1.5963282628 0.2805442938 -1.3511237146
C 0.5488111467 -0.7772153089 0.2041042666
H 0.3750289256 -0.6868205515 1.2815042915
C -0.8022443158 -0.7351282584 -0.5270655273
H -0.6217147368 -0.7835858755 -1.6158054033
C -1.4885832348 0.6111817938 -0.2423166788
H -2.4027183318 0.6828198279 -0.8462160154
O -0.6693210828 1.6655083789 -0.6978907181
O -1.7557795171 0.7060785265 1.1152974891
O -1.6442656991 -1.7861412301 -0.1422693987
O 1.1663938772 -2.0262991467 0.0263648238
O 2.6000768022 0.4157549558 0.4545941557
H 1.1074328142 2.5617653921 -0.4963057704
H 0.47256473 1.8562441332 1.0216036667
H -2.389569138 1.4187082923 1.2873023202
H -1.0855473791 -2.5396800846 0.1115219186
H 1.5584448208 -2.0801933102 -0.8576011367
H 3.1719176964 1.1313312366 0.141595993
*
