! pbe def2-sv(p) def2/J RI DEFGRID1 loosescf d4 GCP(DFT/SV(P)) printgap
%output
    printlevel normal
end
* xyz 0 1
C 4.6937070557 1.3687753543 0.0185950968
C 3.469827431 1.3614115388 -0.872531595
O 2.7978644241 0.0880044873 -0.8133682182
P 1.9278976835 -0.3454093048 0.437881927
S 1.2155440415 1.1528645407 1.4878561526
O 2.9427712155 -1.2799498594 1.2317483056
C 2.5639798732 -2.3558810991 2.1063482813
C 1.5836208669 -1.9222484766 3.1770125201
S 0.6397967217 -1.7709868367 -0.4871406253
C 0.2449405213 -0.8665883339 -2.0081695301
S -0.3028370392 0.837239951 -1.7370291689
P -2.1552788922 0.3388942263 -0.8720091046
S -3.2059202533 -1.0546146221 -1.7502069082
O -2.9801722856 1.6906112248 -0.8452445149
C -2.4501881268 3.0125906094 -0.579841605
C -2.0656427511 3.2067666319 0.8722266178
O -1.6746711547 0.0072725973 0.6154093541
C -2.5869021664 -0.5047504436 1.6091407255
C -2.531409087 -2.0183927864 1.6726996929
H 5.3625019763 0.556965857 -0.2540925382
H 5.211237144 2.3172796453 -0.083213614
H 4.3886821362 1.2373736412 1.0562737822
H 3.7283599248 1.4789304118 -1.9254735195
H 2.7652308589 2.1445630927 -0.5735890792
H 2.1387161633 -3.1577111401 1.4949622916
H 3.5109876272 -2.6832452324 2.5391780942
H 1.3687616723 -2.7592730565 3.8334744607
H 1.9943761403 -1.1008018331 3.759387698
H 0.6564285063 -1.5844384179 2.7141611966
H -0.5546744208 -1.4297354774 -2.4924386392
H 1.1302755518 -0.8121563245 -2.63676437
H -1.593419844 3.180126246 -1.2378445135
H -3.2716256429 3.6707548397 -0.8686087561
H -2.9008115259 2.9543234623 1.5207598181
H -1.210773955 2.5865157979 1.1353972566
H -1.7968280742 4.2469072862 1.0278491174
H -2.2476224781 -0.0518759992 2.5434296396
H -3.5992638106 -0.1592960717 1.3770858104
H -3.1578961675 -2.3640568244 2.488547198
H -2.8885609382 -2.4491040388 0.7398961537
H -1.5095084351 -2.3506467634 1.835551874
*
