! pbe def2-sv(p) def2/J RI DEFGRID1 loosescf d4 GCP(DFT/SV(P)) printgap
%output
    printlevel normal
end
* xyz 0 1
C 4.386885183 -1.3233691197 -1.9776436365
C 4.3202525549 -0.8973982953 -0.5248861065
O 3.6119895599 0.3400214248 -0.3408205271
P 2.0468219025 0.5534621369 -0.5642275216
S 1.4269802958 0.6138081695 -2.4223101435
O 1.8474142187 1.9479428338 0.1344293563
C 2.528678741 2.4062560533 1.3282783515
C 2.2594996279 1.525401943 2.5296858673
S 1.18665479 -0.9949233231 0.6333895805
C 0.0903333061 -1.7738962164 -0.5913661876
S -1.5538359913 -2.1563552448 0.0630456537
P -2.3827120601 -0.2208045152 0.3749094903
S -1.2928059686 1.3287830892 -0.1683713376
O -2.8657655273 -0.2767240033 1.8811928313
C -1.9280592557 -0.3249502568 2.9762871919
C -1.6902021659 1.065162318 3.5347255317
O -3.8334593278 -0.2739214797 -0.2501702908
C -4.0961762219 0.135575225 -1.602302316
C -3.4206457546 -0.7672015019 -2.6160373101
H 3.3899960097 -1.5366317836 -2.3585729375
H 4.8190109186 -0.5309076214 -2.5835559943
H 4.9994539502 -2.2151993822 -2.061721006
H 5.3153105648 -0.6832614559 -0.1301028498
H 3.8391333499 -1.6672935654 0.0858573071
H 3.5968869716 2.4595891181 1.1090562542
H 2.1259211293 3.4107470751 1.4687214237
H 2.6853479116 0.5343952925 2.3799842655
H 2.7109442629 1.9763516333 3.4077906672
H 1.1890082447 1.4252614031 2.6890691966
H 0.5096459332 -2.7354944207 -0.8766467768
H 0.0212115653 -1.1021939689 -1.4522982258
H -2.3985948861 -0.9750767066 3.716091909
H -0.9894967128 -0.7803878568 2.6399849293
H -2.6293663692 1.4981127955 3.8671371529
H -1.002980218 1.004981562 4.3727077828
H -1.2690081517 1.7100937124 2.765523448
H -5.1829975103 0.0878149579 -1.682550002
H -3.7600937327 1.1703241902 -1.7266026475
H -3.763642662 -0.5101363078 -3.6132100985
H -2.3396208949 -0.6297606115 -2.5766284913
H -3.6543160892 -1.8088014146 -2.4099152343
*
