  21
        -26.48984405
 C         -3.4977273577       -0.8335492750       -0.1647151916
 C         -2.5271433601        0.3271360928       -0.3456105766
 C         -1.1774772433        0.0443126649        0.3103196132
 C         -0.2049664646        1.2099427161        0.1452813042
 C          1.1640324726        0.9081291500        0.7675133272
 C          1.8553801888       -0.2345536148        0.0500598612
 O          1.9400138534       -1.3656814767        0.5203549525
 N          2.3660427783        0.0771021558       -1.1480205133
 H         -3.6779418637       -1.0179135145        0.8919964339
 H         -3.0896030571       -1.7416501179       -0.6030938614
 H         -4.4491511174       -0.6162859088       -0.6438603034
 H         -2.9569557964        1.2309907241        0.0917438123
 H         -2.3787980242        0.5114882821       -1.4118726304
 H         -0.7414897594       -0.8581831631       -0.1256218425
 H         -1.3263342117       -0.1531171324        1.3744534622
 H         -0.6212256994        2.0955572990        0.6291516005
 H         -0.0882529433        1.4319857262       -0.9170664074
 H          1.0358133187        0.6221287597        1.8119998173
 H          1.7957574161        1.7952674830        0.7180511370
 H          2.8199580770       -0.6389515386       -1.6913143034
 H          2.2917558201        1.0071909394       -1.5214907031
