! pbe def2-sv(p) def2/J RI DEFGRID1 loosescf d4 GCP(DFT/SV(P)) printgap
%output
    printlevel normal
end
* xyz 0 1
C 2.5043565253 -0.3587913236 -2.7942503312
C 2.7150089379 0.802565904 -1.8441112214
O 3.1223140561 0.332802939 -0.5438899238
P 2.1575835814 0.13792054 0.6968428906
S 1.1513943558 1.7025576111 1.3033071354
O 3.1539256658 -0.3093588254 1.8336544009
C 4.0617335789 -1.4334979261 1.7161264397
C 5.4319080228 -0.978703114 1.2576155869
S 1.025430688 -1.6125487895 0.2537250008
C -0.2999733757 -1.3692600661 1.4791754854
S -1.952183026 -1.6311493179 0.7905382241
P -2.2030612363 0.164882063 -0.2914864555
S -0.8646417941 0.7225597394 -1.6171270173
O -2.3948658808 1.1841785068 0.9076307734
C -2.2653629521 2.6075181606 0.7456404184
C -3.3940650031 3.1732115262 -0.0887246495
O -3.6864385783 0.0244668875 -0.8411435112
C -4.2117495454 -1.1053848364 -1.5634576042
C -3.3068396391 -1.5647720813 -2.6875421345
H 2.2920766023 0.0330187922 -3.7834758041
H 3.3941529405 -0.9804632629 -2.8319469537
H 1.6590173356 -0.9624156299 -2.4725967644
H 1.8042640778 1.4004682734 -1.7483938274
H 3.5359780257 1.4423908042 -2.1730134132
H 4.0999361682 -1.8539988204 2.7226115577
H 3.6321017342 -2.1634117002 1.0240556865
H 5.8189021944 -0.2226884076 1.9354150413
H 6.1034519791 -1.8315644123 1.2499719604
H 5.3759169408 -0.5560589413 0.2583245539
H -0.2246847779 -0.3525157359 1.8737861011
H -0.1893068914 -2.1122085147 2.2646151701
H -2.274027629 2.9899536084 1.7671497977
H -1.2920084244 2.822124934 0.2916645162
H -3.3405203898 2.767550945 -1.0986755631
H -4.3527461808 2.9045193974 0.3468967366
H -3.302573277 4.2537677174 -0.1336301266
H -4.3780725161 -1.9135431107 -0.845783436
H -5.1691107206 -0.7438775942 -1.9432983486
H -3.7921353392 -2.3659964837 -3.2354815644
H -3.0933036161 -0.7415775009 -3.3655574263
H -2.3640839327 -1.9325988969 -2.2831415694
*
