! pbe def2-sv(p) def2/J RI DEFGRID1 loosescf d4 GCP(DFT/SV(P)) printgap
%output
    printlevel normal
end
* xyz 0 1
C 2.1804868737 -0.1816015808 -3.0769480841
C 2.9697954114 0.5150263475 -1.9867444798
O 2.1119435018 0.8600556527 -0.8644387179
P 2.0765450351 0.0700099986 0.4996277808
S 0.8545945053 0.9692228148 1.7430342147
O 3.6220096781 0.0352255353 0.8701008163
C 4.2376641205 -0.8649309268 1.8099914858
C 3.5967587588 -0.8098424273 3.1806663667
S 1.6578162685 -1.9756974688 0.0873851353
C -0.1431384487 -1.8790008562 0.1097442178
S -0.7950241204 -0.7408811281 -1.1503752228
P -2.1848194748 0.3886736094 0.001342298
S -2.5584414674 -0.3360227425 1.7822813879
O -3.4143873848 0.5292759383 -1.0032821298
C -4.0632016655 -0.5535455853 -1.6940728593
C -4.7326373463 -1.5340216987 -0.753393975
O -1.7348233289 1.8945122872 0.1044989584
C -1.7473930928 2.871793178 -0.9628716679
C -0.8157915715 2.503963326 -2.0985461285
H 1.3417495716 0.4342040028 -3.3880148166
H 2.8348233347 -0.3518594361 -3.9258930594
H 1.7965761099 -1.1365011014 -2.7269517003
H 3.362072271 1.4733607966 -2.3305886825
H 3.7902230543 -0.1084520875 -1.6274996399
H 4.185046956 -1.8768574518 1.3988865246
H 5.2756832728 -0.5290772786 1.8423119554
H 3.5968550399 0.2096967574 3.5594052517
H 2.564055719 -1.152815084 3.1287703122
H 4.1473716833 -1.4483694491 3.8638541146
H -0.493413301 -1.5375079708 1.0885406958
H -0.4981285149 -2.8840185906 -0.1051922712
H -4.7955498972 -0.0477807518 -2.3261731213
H -3.3207727816 -1.0592360145 -2.3180565649
H -3.9896878175 -2.0361827728 -0.1365107498
H -5.4238730268 -1.0144232259 -0.0943915397
H -5.2746256871 -2.2740094498 -1.3332790583
H -2.776028431 2.9807430708 -1.3124525221
H -1.4248230938 3.785587638 -0.4606155182
H -0.7693046635 3.3303249701 -2.8010231224
H 0.1813114889 2.3052947018 -1.7104130646
H -1.178763805 1.6163356934 -2.6148912995
*
