! pbe def2-sv(p) def2/J RI DEFGRID1 loosescf d4 GCP(DFT/SV(P)) printgap
%output
    printlevel normal
end
* xyz 0 1
C 2.6781709991 -0.2780318465 -2.8594478984
C 2.5994082233 0.8535669335 -1.8526304319
O 3.1066504429 0.4350791844 -0.5728331854
P 2.1846379475 0.0092021992 0.6577172272
S 0.8078247867 1.3177696983 1.1275582027
O 3.2454650964 -0.1611652781 1.7991870565
C 4.4004863522 -1.0375712107 1.6732160712
C 4.9574215129 -1.2622724467 3.0626413028
S 1.5592394071 -1.9968989548 0.281433345
C -0.0510074358 -1.7581869258 -0.5078911394
S -1.417894308 -1.411761635 0.6600338977
P -2.2305676917 0.3207952509 -0.2416476856
S -1.2984071275 1.0281741203 -1.8200129951
O -2.4013341825 1.3130089828 0.9767300275
C -2.3204781106 2.7415943047 0.8397595622
C -3.5625412775 3.2962667536 0.1745409764
O -3.7622684087 -0.0633358636 -0.4559271879
C -4.2504116684 -1.2467600671 -1.111475612
C -3.7870804848 -1.3602937602 -2.5498872494
H 3.7065919072 -0.6113397996 -2.9633275636
H 2.0679889992 -1.120804818 -2.5448433131
H 2.3144481728 0.0802840839 -3.8170868626
H 1.574269866 1.2219905355 -1.7380914726
H 3.2399481997 1.6866248899 -2.1484473585
H 4.0765226478 -1.97525364 1.2145369374
H 5.1220909912 -0.542209008 1.0216057127
H 5.2340007346 -0.3124287587 3.5113616811
H 4.2122030489 -1.7413900912 3.691287441
H 5.8340251344 -1.8983349668 2.9956617886
H -0.2630748415 -2.7074725166 -0.9934585532
H -0.0092428964 -0.9379265517 -1.2306880628
H -2.2046795828 3.0994660217 1.8636162931
H -1.4189360528 2.9909900404 0.2699616028
H -3.4988756322 4.379008937 0.1355057266
H -3.6399876296 2.9056448238 -0.8397713627
H -4.4472745399 3.0009550324 0.7320318611
H -3.9316958968 -2.1169749193 -0.5298156162
H -5.3349905336 -1.1407702861 -1.0500216485
H -2.706391168 -1.4847844574 -2.5913981726
H -4.2621817706 -2.2196202471 -3.0118929583
H -4.0493729061 -0.462602057 -3.1043185409
*
