! pbe def2-sv(p) def2/J RI DEFGRID1 loosescf d4 GCP(DFT/SV(P)) printgap
%output
    printlevel normal
end
* xyz 0 1
C 3.6125030677 -1.8616666018 -2.3519471527
C 4.0168728176 -0.4137593028 -2.1605925773
O 3.5971498391 0.1147711566 -0.8922551128
P 2.0673982215 0.3257949769 -0.47878832
S 0.9381252956 0.9949513356 -1.9240473412
O 2.2369444356 1.3343160031 0.7124140218
C 3.0151657938 1.0369670885 1.9004672227
C 2.5565228648 1.9766272726 2.9948864288
S 1.5086989101 -1.5414234621 0.4000689818
C 0.1365807067 -2.0169960975 -0.6940686637
S -1.4610603245 -2.194364084 0.153092098
P -2.0006694932 -0.1819650215 0.3968549407
S -0.8212753574 1.0202217901 1.4127901357
O -3.459050066 -0.282532154 1.0203352145
C -3.7057060144 -0.3819709913 2.4371609673
C -5.0063571439 0.3326218431 2.7458645124
O -2.3067569857 0.2100364269 -1.1016106132
C -2.6231427485 1.5671320816 -1.4847564997
C -2.5503737371 1.6481464398 -2.9942624148
H 2.5321832721 -1.934426169 -2.4665188993
H 4.0860440704 -2.247377397 -3.249059669
H 3.9205997436 -2.4569456349 -1.4961668124
H 3.5928350438 0.2126955023 -2.9516697606
H 5.1016636675 -0.2991928508 -2.1395626768
H 2.8443854164 -0.0079864204 2.1761086064
H 4.068397495 1.1806750975 1.6510179364
H 3.1031159909 1.7592427461 3.9065002003
H 2.7319992854 3.0072239072 2.7005748185
H 1.4910725593 1.8435112748 3.1685130863
H 0.357136564 -3.0044317279 -1.0909736555
H 0.0408578782 -1.2718493311 -1.4887495538
H -3.763939741 -1.4437227338 2.6871854321
H -2.8646640442 0.0723243225 2.9721458449
H -5.8128473481 -0.0962914507 2.158186994
H -5.2304647313 0.2211373825 3.8016026686
H -4.9194128691 1.3895952205 2.508599413
H -3.6246235641 1.7974281681 -1.1137441501
H -1.8989300593 2.2398820223 -1.0124613517
H -2.8369730304 2.6454694173 -3.3108685137
H -1.5342987268 1.4455602242 -3.3248723285
H -3.2212797277 0.9176420607 -3.4362076772
*
