! pbe def2-sv(p) def2/J RI DEFGRID1 loosescf d4 GCP(DFT/SV(P)) printgap
%output
    printlevel normal
end
* xyz 0 1
C 5.9224811007 -1.6700339837 -0.5769297551
C 4.8165023153 -0.8263536219 -1.1803971022
O 3.5516505851 -1.3563852633 -0.7371153587
C 2.4658510515 -0.990158985 -1.3828828328
O 2.4527609372 -0.2395422216 -2.3334875949
C 1.224425167 -1.642369053 -0.7992956033
C 0.1728017716 -0.5691798297 -0.5406014256
H 0.0192588178 0.0247774144 -1.450490399
C 0.5760543573 0.3883994487 0.5647416217
O -0.198221586 0.7516337374 1.4263526949
O 1.8199163063 0.7717213097 0.4557435726
C 2.3506076154 1.6816677976 1.4458717032
C 2.92588904 0.9087561818 2.6208137923
S -1.4211712665 -1.3172712586 -0.0731826066
P -2.5485247785 0.4666705169 0.1831093326
S -1.9422212632 2.0547717858 -0.7904335879
O -3.9933170077 -0.0397070623 -0.3102455419
C -4.251213248 -0.3386789849 -1.6844141296
O -2.8850777672 0.7102376245 1.7048035699
C -3.40567408 -0.3302164309 2.5561153712
H 5.8605273852 -1.6482942033 0.5067999988
H 5.8330617187 -2.6991042925 -0.9117904963
H 6.8839044825 -1.2754387195 -0.8881518955
H 4.8359758948 -0.8452650542 -2.2743304587
H 4.8771370232 0.2160420507 -0.8534225075
H 1.4840658471 -2.173090008 0.115344452
H 0.8289349734 -2.3509115535 -1.5290561374
H 3.1205404062 2.2402190521 0.9132300399
H 1.5489507744 2.3531905044 1.7651597907
H 3.6621580613 0.1906425603 2.2699905279
H 3.3990745912 1.6035977421 3.3065091927
H 2.133781379 0.3792010777 3.1450418292
H -5.3311801769 -0.429054289 -1.7673296721
H -3.7639728874 -1.2745972628 -1.9578486931
H -3.8871674511 0.4713809082 -2.3188318599
H -4.394302067 -0.6291135525 2.2124313909
H -3.4542206578 0.1159318117 3.5459439872
H -2.7304953501 -1.1859781967 2.5521283415
*
