! r2scan-3c def2/J RI DEFGRID2 scfconv6 printgap
%output
    printlevel normal
end
* xyz 0 1
C 4.1810715635 2.4831710328 0.566603752
C 4.2577252461 1.5328297653 -0.6116794519
O 3.5943456913 0.2866302466 -0.3271052504
P 2.0034025385 0.1630380259 -0.3013651353
S 1.0347293108 1.4351532778 -1.4240502156
O 1.5646094527 0.2781258351 1.2222837753
C 2.2783492749 -0.3944126034 2.2900476362
C 1.4784337247 -1.5651394385 2.8246309099
S 1.9407932343 -1.8799501847 -0.8337841563
C 0.1746052917 -2.013227866 -1.2109253801
S -0.896999861 -1.9285590652 0.2638746443
P -1.9823456315 -0.1838420864 -0.1439943978
S -2.2785584139 0.2563020428 -2.0379196414
O -1.2716304829 0.8855473925 0.7756675891
C -1.6605114632 2.2776649486 0.7313645642
C -0.7237947279 3.0429729946 1.6403250408
O -3.3351018282 -0.4043317789 0.6659996012
C -4.4170024234 -1.2039288485 0.1481506999
C -5.7009163314 -0.7453265489 0.8100749407
H 3.1394458114 2.7329911855 0.7674604
H 4.6142365104 2.0262381688 1.4524794184
H 4.7218878377 3.394098871 0.3302478497
H 5.2849733243 1.242003425 -0.8349377479
H 3.796514533 1.9796709005 -1.4980329503
H 3.2535110293 -0.7190587805 1.9174397476
H 2.410835699 0.3724119013 3.0555686742
H 1.4027462012 -2.3562466157 2.0825959656
H 1.9737898137 -1.9543257182 3.7085001871
H 0.4746491422 -1.2422186287 3.088025624
H 0.0412664567 -2.9937932853 -1.6603956591
H -0.125556861 -1.2213532991 -1.9029105433
H -1.5825673231 2.621723291 -0.3059457413
H -2.699823166 2.3548100983 1.0603570843
H 0.2979778758 2.924784282 1.288784405
H -0.9901377309 4.0946487034 1.6236260519
H -0.7951702599 2.6615662675 2.6544060774
H -4.4565699512 -1.0743132895 -0.9387992623
H -4.2004613625 -2.2499356682 0.3786004515
H -5.6125256952 -0.8328648672 1.8890439068
H -5.9056840615 0.2908064003 0.5550893896
H -6.5200413636 -1.3666472703 0.4635118877
*
