! pbe def2-sv(p) def2/J RI DEFGRID1 loosescf d4 GCP(DFT/SV(P)) printgap
%output
    printlevel normal
end
* xyz 0 1
C 1.6209181831 -1.2659382575 -2.5624504562
C 2.8834783357 -0.4509301964 -2.382552856
O 2.867620267 0.3484131531 -1.1735655546
P 2.8106722112 -0.2016600162 0.3048992879
S 3.6287015084 1.0618056217 1.5566232806
O 3.4962177554 -1.6269159182 0.1857130648
C 4.0334964494 -2.3188329496 1.3298641943
C 2.9541263555 -2.7306453284 2.3090326798
S 0.7547751235 -0.6031160276 0.7097883294
C 0.3094184853 1.1492571459 0.9256268702
S -1.3788599589 1.3200058031 1.5317711705
P -2.3132470763 0.5098935293 -0.1852433013
S -1.4922484379 0.9717757106 -1.9090501784
O -3.8281830107 0.9524435647 -0.0253665975
C -4.2593884029 2.2992594778 -0.307610306
C -5.7724217156 2.2936772695 -0.388283381
O -2.38219486 -1.0206750882 0.1872801061
C -2.4365252216 -2.0635988196 -0.8096940923
C -3.7773270215 -2.083302528 -1.5121363811
H 0.7463628409 -0.6181571839 -2.5492604437
H 1.6644355465 -1.7763197783 -3.5194580988
H 1.5308326839 -2.0042223734 -1.7679916314
H 2.9932265628 0.2955988142 -3.1706243894
H 3.7637903283 -1.0954278535 -2.3506217726
H 4.5362222972 -3.1837016411 0.8946925363
H 4.7644252351 -1.6655199001 1.8156528616
H 3.3916629832 -3.3518839547 3.083894808
H 2.5151249422 -1.848039853 2.771987455
H 2.16997726 -3.2855889125 1.8001791965
H 0.3978511482 1.6570740303 -0.0372148948
H 0.9709074482 1.5972896762 1.667321831
H -3.9040376194 2.9492734762 0.4968525462
H -3.8070308186 2.6202304963 -1.2522514231
H -6.1228246408 3.3037541348 -0.5733205598
H -6.1029358314 1.6456881696 -1.1949425034
H -6.1897447933 1.9326875501 0.5470820776
H -1.6236496998 -1.9044036735 -1.5250445255
H -2.2565666835 -2.9758886595 -0.2405341548
H -3.9102581932 -1.1595771132 -2.0745277356
H -3.8150886953 -2.9238164347 -2.1978333542
H -4.580369188 -2.1695432787 -0.785198573
*
