! pbe def2-sv(p) def2/J RI DEFGRID1 loosescf d4 GCP(DFT/SV(P)) printgap
%output
    printlevel normal
end
* xyz 0 1
C 4.7969841708 -1.5134616438 -0.1406357402
C 4.555818243 -0.1864740949 -0.8335383514
O 3.5483878143 0.5870981172 -0.1550304577
P 2.0203449916 0.589158565 -0.6002615606
S 1.7555581792 0.7264263375 -2.5364193699
O 1.4711467539 1.8224845893 0.2125514147
C 1.9920546159 2.2933289591 1.4798452769
C 1.7692335765 1.2950333176 2.5954031567
S 1.2442983906 -1.2025362962 0.2561282033
C 0.0952780981 -1.7457637003 -1.0447529884
S -1.5884301547 -2.0048454521 -0.4427921297
P -1.991521713 -0.0172318234 0.200203227
S -1.4361242979 1.4298723492 -0.9969402765
O -1.3240246347 0.0936850493 1.6254563496
C -1.6252865284 -0.8289151305 2.707958141
C -2.5683536118 -0.1832795658 3.7013841873
O -3.5404242875 -0.056148503 0.5547719601
C -4.5694178566 0.2066726491 -0.414867281
C -4.623695877 -0.8484355107 -1.5004517009
H 5.0543259167 -1.3479118629 0.9017275653
H 3.9101657953 -2.1399655048 -0.1876980608
H 5.6180624894 -2.0223775835 -0.6351035421
H 4.249611782 -0.3252763329 -1.8757254978
H 5.4478787275 0.44211432 -0.800767629
H 3.0530208368 2.5160192708 1.3519908691
H 1.4333829799 3.2159173992 1.6462859083
H 2.3302700233 0.3821002439 2.4014086873
H 2.1033877662 1.7283696778 3.5328368305
H 0.7121479256 1.0524660595 2.6652003159
H 0.4285474415 -2.7108884541 -1.4177954278
H 0.1007519979 -0.9947296483 -1.8401977416
H -2.0565354125 -1.7407506154 2.2868719471
H -0.6570853674 -1.0572757378 3.1584594853
H -3.5204495016 0.0373093807 3.2260311171
H -2.7300377817 -0.8659513747 4.5295786982
H -2.1420034434 0.7426716006 4.0776030369
H -5.4856224101 0.2219423753 0.1772457345
H -4.3887578316 1.1951863174 -0.8482906039
H -4.6761121713 -1.841897191 -1.0621741474
H -5.4987522928 -0.6794533565 -2.1198033833
H -3.7343125645 -0.7855707298 -2.1258836458
*
