! pbe def2-sv(p) def2/J RI DEFGRID1 loosescf d4 GCP(DFT/SV(P)) printgap
%output
    printlevel normal
end
* xyz 0 1
C 3.0478837098 2.2078888836 -0.1277109172
C 2.2798965536 1.9448665364 1.1504234599
O 1.3543789603 0.8343549444 1.0329416265
P 1.7356829245 -0.6761188116 0.7901834048
S 0.3164353315 -1.8887779085 1.3892547677
O 3.1204149825 -0.802533099 1.5553963338
C 3.6769862127 -2.066657733 1.9595724184
C 4.0731811302 -2.9278383468 0.7783942739
S 2.248455734 -0.8911329852 -1.2659452854
C 0.5765033848 -0.8545566646 -1.9344381007
S -0.2018425829 0.7927066984 -1.8125756061
P -1.927702913 0.3150541877 -0.707701581
S -2.6272105865 -1.502969655 -0.83115847
O -2.9876734426 1.3590580081 -1.2628635512
C -2.7189681419 2.7833656177 -1.2914601032
C -4.0470740524 3.5028080762 -1.4050110868
O -1.5119689272 0.8358970292 0.7481192097
C -2.2101728261 0.4032120691 1.9283477763
C -3.6016638902 0.996093744 2.0061789107
H 2.3634997872 2.3103619215 -0.9672045658
H 3.6121569936 3.1282604122 -0.0132373269
H 3.7381348454 1.3926864941 -0.3326372837
H 1.6255835022 2.7809255254 1.4025669776
H 2.9569881168 1.7357026604 1.9805030982
H 4.5424095949 -1.7853389501 2.5614225645
H 2.940865434 -2.5837461847 2.5826319988
H 4.7063084514 -2.3682127057 0.0947463087
H 4.6105665923 -3.7998523675 1.1371061593
H 3.1848681385 -3.258813499 0.2428461481
H -0.056490666 -1.5771876772 -1.411307143
H 0.6646152794 -1.1044230348 -2.9886227373
H -2.185394179 3.0598009331 -0.378084383
H -2.0797297958 2.9832652158 -2.1552314536
H -3.8686587436 4.5715396067 -1.4646006863
H -4.5690984224 3.1735900464 -2.2986533976
H -4.6688157864 3.2881564346 -0.5402227467
H -2.2514717159 -0.6912694872 1.9270229746
H -1.5722267551 0.7360008472 2.7489590136
H -3.5535255038 2.082001087 1.9859632057
H -4.1961789361 0.6468276322 1.1618705034
H -4.07569827 0.6734560123 2.9278731402
*
