! pbe def2-sv(p) def2/J RI DEFGRID1 loosescf d4 GCP(DFT/SV(P)) printgap
%output
    printlevel normal
end
* xyz 0 1
C 3.0779920478 -1.4474357388 -2.447136547
C 2.1508106998 -0.2534125666 -2.5073130725
O 2.2998142592 0.6268497393 -1.3705669639
P 2.1570774517 0.2345885203 0.1463342252
S 1.732444471 1.7559711035 1.3042967059
O 3.6074681208 -0.3718062377 0.4269798888
C 4.1739687117 -0.4953963155 1.7393762931
C 3.4190277659 -1.4818759852 2.6082461232
S 0.8463160341 -1.4430415194 0.2428828338
C -0.2782149523 -0.8913827854 1.5645047668
S -2.0400943384 -1.0680988482 1.1731260687
P -2.3661396334 0.3408735396 -0.3843456623
S -0.8213289683 1.2312041076 -1.2216507906
O -3.490129001 1.3082261459 0.1756551781
C -3.204213304 2.5407954932 0.8546835185
C -2.4421335874 2.3320695498 2.1489012133
O -3.3158213297 -0.4340660954 -1.3841261576
C -2.8087908036 -1.2232212958 -2.4759804434
C -2.175686257 -2.5191548847 -2.0079341408
H 4.107401797 -1.1165334803 -2.337349375
H 2.8190115289 -2.0826523588 -1.6014590937
H 2.9769812761 -2.0202398788 -3.3636757295
H 1.1034118952 -0.5636323335 -2.5584955066
H 2.3761867028 0.3968831855 -3.3538959762
H 5.1959628185 -0.826676893 1.5493478641
H 4.1859994937 0.494930383 2.2060790838
H 3.2934389786 -2.4276545121 2.0873776893
H 3.9747100117 -1.6469101956 3.5257343617
H 2.4397075005 -1.0775400119 2.8598291303
H -0.0348911585 0.1486952073 1.7992219154
H -0.1313417422 -1.5348423212 2.4286064557
H -2.6385179566 3.1900360985 0.1784209608
H -4.1911005948 2.9690509545 1.0364377932
H -2.9246998583 1.5686238691 2.7543425908
H -1.4157782273 2.0305897527 1.9372209404
H -2.412076344 3.2650028172 2.7029668738
H -3.6900118034 -1.4089193248 -3.0918932536
H -2.0892483946 -0.6164335608 -3.0362757089
H -2.8612431977 -3.0582722844 -1.3594193659
H -1.939738673 -3.1323755311 -2.8717460827
H -1.2569777661 -2.3204287321 -1.4571956371
*
