  8
        -23.49374291
 C          0.6520612779        0.0001850600       -0.3881158113
 C         -0.6528597946        0.0002070692        0.3878290971
 Cl        -1.5920062012        1.4503562436       -0.0334070034
 Cl        -1.5913965328       -1.4503078484       -0.0332762161
 Cl         1.5922844805        1.4494003501        0.0334569012
 Cl         1.5913980588       -1.4495982694        0.0333298599
 H          0.4903046634        0.0001628613       -1.4680593564
 H         -0.4906312165        0.0004237922        1.4678339397
  8
        -23.49360539
 C          0.7211900362        0.5770539622       -0.2374619345
 C         -0.7205737355        0.5767428642        0.2377763556
 Cl        -1.8017104095        0.6465777841       -1.1727055649
 Cl        -1.0790227873       -0.8833743889        1.1910917242
 Cl         1.8021910415        0.6464496963        1.1732296449
 Cl         1.0783232392       -0.8827695444       -1.1917379010
 H          0.9281940870        1.4464549735       -0.8656070461
 H         -0.9278379204        1.4459959042        0.8661549563
