! r2scan-3c def2/J RI DEFGRID2 scfconv6 printgap
%output
    printlevel normal
end
* xyz 0 1
C 2.9851015294 -1.8376990933 -0.2774930565
C 1.6792875323 -1.1639112712 -0.0846677508
C 1.5065318103 0.180288874 -0.0371358862
C 0.208415662 0.789988275 0.1553867881
O 0.0756220554 1.9787208803 0.411623267
N -0.8773206857 -0.0818625262 0.02317856
C -0.7114454168 -1.4335132591 0.2559971447
O -1.5946080554 -2.2012438395 0.5913732834
N 0.5629937199 -1.9215240623 0.0889939276
C -2.2537240995 0.4864157024 -0.1456582099
C -2.1948031106 1.6921763736 -1.0917565931
C -3.1848758392 -0.5327223504 -0.8108187465
C -2.7856485201 0.8878671534 1.2289188947
Cl 2.8447801986 1.2727810429 -0.136880415
H 3.7099900106 -1.4411811208 0.4292664393
H 3.3616810973 -1.6180584204 -1.2744133879
H 2.8955977063 -2.9110842349 -0.153065074
H 0.6520962373 -2.9267892554 0.2017897185
H -3.2084666371 2.0115445024 -1.3117629978
H -1.662238479 2.5296198133 -0.654368316
H -1.7055170803 1.4157989378 -2.023203717
H -4.1070454964 -0.02775176 -1.0811973807
H -3.426311618 -1.3579143349 -0.1506307049
H -2.7295774472 -0.9308209423 -1.7146006495
H -3.7819262644 1.3070637599 1.1302560734
H -2.8314886737 0.0158318124 1.8775663564
H -2.1328178319 1.632639744 1.6783476179
*
