! pbe def2-sv(p) def2/J RI DEFGRID1 loosescf d4 GCP(DFT/SV(P)) printgap
%output
    printlevel normal
end
* xyz 0 1
C 2.3488767314 0.24365973 -2.9050015859
C 1.9119456799 -0.9450210749 -2.0734552825
O 2.6401985201 -1.0236459275 -0.835792968
P 2.2847463354 -0.2126875583 0.4835060001
S 2.3994527402 1.7388079658 0.4787762911
O 3.3265513917 -0.7924190074 1.512002548
C 3.5138557242 -2.207737695 1.7599178854
C 4.6851680039 -2.7425248679 0.9616345462
S 0.4017607824 -1.0609345393 1.0542491685
C -0.2802614192 0.3801560177 1.9273851094
S -2.0834515911 0.4698043675 1.8035324372
P -2.2527656786 0.5027698837 -0.2952377559
S -0.859620482 1.388067456 -1.3645523414
O -3.719856206 1.0566898522 -0.5689530078
C -4.0021513431 2.4540338508 -0.7534933809
C -3.7724928503 3.2538444256 0.5126949189
O -2.4540684707 -1.042660369 -0.555339727
C -2.3260327815 -1.655392387 -1.858803185
C -1.7068375365 -3.0267554136 -1.6777564584
H 2.0629906177 1.1720268352 -2.4135909514
H 3.4270513954 0.2340736345 -3.038770816
H 1.8619748036 0.2013346735 -3.8739446954
H 2.1382229203 -1.8874390779 -2.5758390434
H 0.8414662162 -0.8889317784 -1.8589473039
H 3.7024194671 -2.2728128725 2.8329585358
H 2.588111722 -2.7358618595 1.5141450499
H 4.4874217088 -2.6569610298 -0.1032354668
H 5.5825936704 -2.1768109785 1.1963355461
H 4.8416320257 -3.7860822779 1.2162802767
H 0.1724125869 1.2789797935 1.4968110901
H -0.0582629691 0.3007565337 2.9889543932
H -3.3712213258 2.829435392 -1.5657687081
H -5.0494197517 2.4715486452 -1.0579361587
H -4.1113160949 4.2737298611 0.3612636985
H -4.3154884105 2.810353901 1.3436195059
H -2.7104458413 3.2692275811 0.7565101197
H -3.3278793866 -1.7205189051 -2.2885378994
H -1.7048967655 -1.0111218721 -2.4915515395
H -0.7275680107 -2.938155641 -1.2139199986
H -2.3382613883 -3.6343954267 -1.0366235889
H -1.6072127564 -3.5043316272 -2.646895489
*
