! r2scan-3c def2/J RI DEFGRID2 scfconv6 printgap
%output
    printlevel normal
end
%cpcm
    smd true
    smdsolvent "water"
end
* xyz 0 1
C 0.8553285602 1.379927983 -0.5797224457
C 1.5891365196 0.1402420482 -0.0530193559
H 2.5338162154 0.0534712882 -0.60375408
C 0.750090535 -1.1246664287 -0.338345116
H 1.1840485318 -1.9693296869 0.2192754688
C -0.691629849 -0.9089520716 0.1655341341
H -1.3323877239 -1.7476669325 -0.1274571416
C -1.263930112 0.382839066 -0.4568024493
H -1.2761587005 0.295437645 -1.5550598058
O -0.4583421235 1.4837569338 -0.0754836766
O -2.5602556558 0.6205448207 -0.0551583995
O -0.7501729932 -0.8435833458 1.5677503818
O 0.8024330806 -1.3556761732 -1.7237588656
O 1.8136344062 0.3096852437 1.3287169748
H 0.8365800077 1.3362254866 -1.6759835898
H 1.3654614576 2.2816605963 -0.2415357537
H -2.5969314256 0.5871438503 0.9162801192
H -0.1152250221 -0.1659560315 1.8655074791
H 0.4314738454 -2.2256872005 -1.9292251952
H 2.5023956891 -0.2974284809 1.6335015626
*
