! r2scan-3c def2/J RI DEFGRID2 scfconv6 printgap
%output
    printlevel normal
end
%cpcm
    smd true
    smdsolvent "water"
end
* xyz 0 1
C 0.2322124898 -2.2762133586 2.3388360013
C 1.3126270372 -1.2270526442 2.179591818
O 1.9276230517 -1.4090138114 0.8787388145
P 2.6086433145 -0.2359808453 0.0771136241
S 3.4872627622 -0.8709491445 -1.5481764749
O 3.5452875561 0.4134657651 1.1848621813
C 4.6514093934 1.2798930866 0.8671655702
C 4.2043701365 2.5752642763 0.2221431105
S 1.080468227 1.2305591537 -0.2104637188
C 0.3886347779 0.4837634586 -1.7035668455
S -0.5050304781 -1.0568822503 -1.3599479436
P -2.1972159698 -0.1280416118 -0.4956492036
S -2.8628480913 1.4523304173 -1.4532439388
O -1.8498495241 0.1407598884 1.0361050781
C -1.8549818741 1.4427702005 1.6505316984
C -3.1742113337 1.6828144094 2.3569753831
O -3.0704333032 -1.4482793155 -0.4460251615
C -4.2668179221 -1.5760349131 0.353869485
C -5.4568768654 -0.899622071 -0.2972238631
H -0.5432272334 -2.1363187204 1.5889249908
H 0.657660548 -3.2678212614 2.2146081153
H -0.2058593047 -2.1905233545 3.3279865938
H 2.0976011745 -1.3385358901 2.9297180599
H 0.9025453268 -0.2143289511 2.2337538155
H 5.1269384663 1.453188945 1.8335702834
H 5.3337645856 0.7367195924 0.2067617669
H 3.7984040682 2.3775311823 -0.7687646075
H 3.438865328 3.0564652247 0.825617239
H 5.057732989 3.2385982875 0.1245587238
H 1.2001882587 0.2354937098 -2.3881447683
H -0.294205832 1.2125407155 -2.1427710082
H -1.0186604698 1.4337052883 2.3505507308
H -1.681306199 2.2043798798 0.8847780896
H -3.1350650238 2.6399728015 2.8666110782
H -3.984715463 1.7044330239 1.6309926746
H -3.3644764582 0.8976978165 3.0835545059
H -4.4147565598 -2.6549607279 0.426682478
H -4.0720279958 -1.1624735115 1.3465943464
H -6.3420897618 -1.0699751009 0.3074203589
H -5.286038349 0.1717359008 -0.3852973394
H -5.6189488693 -1.3027742954 -1.2934847583
*
