! pbe def2-sv(p) def2/J RI DEFGRID1 loosescf d4 GCP(DFT/SV(P)) printgap
%output
    printlevel normal
end
* xyz 0 1
C 3.2271990842 -0.7904610583 -2.5427763303
C 3.2305465217 0.6763219496 -2.1701824719
O 2.181446474 1.0097863765 -1.229940288
P 2.0421117657 0.4497304701 0.2329195862
S 0.9559541896 1.5968893446 1.3874295183
O 3.5764711789 0.3641593589 0.66715178
C 4.0112193499 0.317807728 2.0356632907
C 3.6048578979 -0.963934404 2.7344604239
S 1.4090582698 -1.587413584 0.0999019109
C 0.073029421 -1.6108278028 1.3289639907
S -1.5623241405 -2.0047513072 0.637157924
P -2.0449453162 -0.1957967036 -0.3043928905
S -0.8539501789 0.5266948135 -1.6957547016
O -2.3163907314 0.7192795955 0.9534485014
C -2.5824312744 2.1337639423 0.8253459891
C -2.4674850203 2.7508392533 2.2025444643
O -3.51695673 -0.4648515804 -0.8406058463
C -3.7862682098 -1.0870072091 -2.1128696727
C -5.1122675005 -0.5619108231 -2.6259481007
H 3.4828767193 -1.4019609291 -1.6785881577
H 2.2425486038 -1.0830028851 -2.9004494597
H 3.9584111008 -0.960055875 -3.3269185134
H 2.9981678152 1.3088468129 -3.0284189933
H 4.1867400361 0.9708182027 -1.7327318922
H 5.0961152154 0.4084343593 1.9631720493
H 3.6000298884 1.187579812 2.5577763001
H 3.8976702826 -1.8278036506 2.1434170879
H 4.0905321552 -1.0088242568 3.7039660789
H 2.5263151485 -0.9824301468 2.8812974735
H 0.0272381203 -0.6361747497 1.8230915869
H 0.2804925063 -2.4117780494 2.0336362327
H -1.8516217606 2.5636089318 0.131467796
H -3.5860319396 2.2515478043 0.4099924518
H -2.7141453572 3.8055672962 2.1412273583
H -3.1489438752 2.255228588 2.8873750348
H -1.4499432092 2.6414587582 2.5705854755
H -2.9674831614 -0.8462582645 -2.7996293224
H -3.81927448 -2.1673153972 -1.9533805828
H -5.0516109835 0.5097423316 -2.7952603921
H -5.352723922 -1.0582115063 -3.5603360063
H -5.8946425804 -0.7610031332 -1.8993286018
*
