! pbe def2-sv(p) def2/J RI DEFGRID1 loosescf d4 GCP(DFT/SV(P)) printgap
%output
    printlevel normal
end
* xyz 0 1
C 1.8503018624 -3.2377622785 0.0949470061
C 2.9193108278 -2.1653365374 -0.039290255
O 2.3398294013 -0.9406965846 -0.5285186588
C 2.248033854 -0.7673400769 -1.839048744
O 2.7218659499 -1.5174675459 -2.6596272224
C 1.4963249698 0.5022273455 -2.1893066287
C 0.3584443066 0.7728538624 -1.212666353
H -0.1917977528 1.6726526613 -1.5066469161
C 0.8420704048 0.9658116946 0.2101108
O 0.2929329276 0.4383248115 1.1586423837
O 1.8487113313 1.7854522644 0.2961653305
C 2.3519134116 2.0866336763 1.6165331268
C 3.5600579495 2.9874576199 1.4615171573
S -0.8203570085 -0.6230770917 -1.1974329804
P -2.1254006954 0.080879538 0.3383463066
S -2.2224853023 1.9948818406 0.7364778968
O -3.5285342516 -0.3225670235 -0.3069945047
C -3.8541828956 -1.6637420883 -0.7055107486
O -2.1091397675 -0.9587332743 1.5530463002
C -1.4933535176 -0.7979681371 2.8301762354
H 1.4513355148 -3.4912710456 -0.8846572856
H 2.2814442862 -4.1251772071 0.545941228
H 1.0353945362 -2.8761079639 0.7179364526
H 3.7044608544 -2.4794165783 -0.7324467008
H 3.3472656 -1.9044583709 0.9291488692
H 1.1153909901 0.398484049 -3.2049640515
H 2.1964322485 1.3400371154 -2.1553524138
H 1.5493141034 2.5712873954 2.1808895929
H 2.6039094681 1.1430362726 2.1086930752
H 3.9461006898 3.2378069753 2.4439125744
H 4.3336184944 2.482514091 0.8909206565
H 3.2797479998 3.9003817986 0.9450330389
H -3.1057296121 -2.0371541385 -1.4056298418
H -4.8255007959 -1.5894286275 -1.1878528768
H -3.9041937532 -2.3099727941 0.1690102542
H -1.462699275 0.2560902982 3.1059736152
H -0.4810971188 -1.1957807515 2.8032477377
H -2.114647337 -1.3578922378 3.5260691295
*
