! wb97x-v def2-tzvp def2/J RIJCOSX DEFGRID2 scfconv7 GCP(DFT/TZ) printgap
%output
    printlevel normal
end
%cpcm
    smd true
    smdsolvent "water"
end
* xyz 0 1
C -1.818474800779177 -0.8403779468947498 0.4542287915719275
S -0.9365180820559834 0.5011978340938201 -0.4369855276350671
S 0.9387122591751706 0.49302941239008236 0.4481428242242868
C 1.8206792343750138 -0.8382862479218934 -0.4579537263296584
H -2.8289444046888432 -0.874143509785066 0.033492821325807755
H -1.8765646013338764 -0.6188278614674669 1.521708804301882
H -1.328070464153165 -1.8015921123449146 0.28589645952713305
H 2.8309264415370623 -0.8783333298472149 -0.03721842427709484
H 1.8791829544208356 -0.6040208272676932 -1.5227010843114235
H 1.3288010871349718 -1.8006569989135004 -0.3011754958539367
*
