! pbe def2-sv(p) def2/J RI DEFGRID1 loosescf d4 GCP(DFT/SV(P)) printgap
%output
    printlevel normal
end
* xyz 0 1
C 2.8322796023 3.9516e-06 -0.0352674348
N 1.393154318 -0.0001549305 -0.2811624908
C 0.7275043433 1.1841959244 0.2293637637
C -0.7338267771 1.1831121933 -0.2057799126
N -1.4029445557 -0.0001950837 0.3046970504
C -0.7335983873 -1.1831265966 -0.2064165458
C 0.7272915803 -1.1840562241 0.2299794388
C -2.8125308519 9.29909e-05 -0.0260859968
H 3.1387883571 0.8809466148 0.5303109525
H 3.3585598608 0.0016574619 -0.9914545772
H 3.1392525497 -0.8823567192 0.5276209938
H 0.7696632592 1.2290171087 1.3327996877
H 1.2235420142 2.0666104062 -0.1796114806
H -1.2343039459 2.0666599274 0.1960951139
H -0.7788346761 1.2224258321 -1.3091682278
H -1.2343650581 -2.067108047 0.1943693881
H -0.7777063411 -1.2214999181 -1.3098448006
H 0.7683294051 -1.2277641989 1.3335410875
H 1.2237281913 -2.0669231976 -0.1775595851
H -3.2770666054 -0.8857509999 0.4031096915
H -2.9914903675 0.0013473397 -1.1131384883
H -3.2768847236 0.8849541103 0.4051715466
*
