  17
        -20.40847665
 C         -3.9636383456       -0.9428907138       -0.1819129235
 C         -3.0722029145        0.1615263412        0.3729388379
 C         -1.6924634124        0.1527045345       -0.2808193340
 C         -0.7927361405        1.2542351057        0.2740551542
 C          0.5738844209        1.2834934201       -0.3799993410
 Br         1.6268052133       -0.3342022500        0.0397495119
 H         -4.9390748436       -0.9226257951        0.2973217471
 H         -3.5146814642       -1.9180529507       -0.0073829469
 H         -4.1040468092       -0.8178604411       -1.2531958184
 H         -3.5463590041        1.1307789540        0.2035673761
 H         -2.9607736763        0.0297703601        1.4513376044
 H         -1.2230531997       -0.8193291802       -0.1103133273
 H         -1.8035010808        0.2835667756       -1.3601406898
 H         -1.2569057344        2.2276620577        0.0961032295
 H         -0.6819217060        1.1283674974        1.3534087561
 H          1.1783486254        2.1151624157       -0.0233083726
 H          0.5045650429        1.3072498354       -1.4660706474
