! pbe def2-sv(p) def2/J RI DEFGRID1 loosescf d4 GCP(DFT/SV(P)) printgap
%output
    printlevel normal
end
* xyz 0 1
C 4.2713217756 0.1682763668 -2.3264749546
C 4.3444481138 0.9520135333 -1.0319068132
O 3.7419872267 0.2454665865 0.065544895
P 2.1833843318 -0.0520783569 0.1464638699
S 1.0378453136 1.4358923834 -0.4465013019
O 2.0140247176 -0.4889197862 1.6579098738
C 1.7041701792 0.4505469087 2.7060170022
C 2.8892174841 1.3320348151 3.0406182732
S 1.9861740892 -1.9386375298 -0.7717743103
C 0.2044235873 -1.9256880761 -1.1004252562
S -0.7899879104 -1.6048059735 0.3919261162
P -2.1174581715 -0.1448212711 -0.3941363745
S -1.9280372469 0.414436761 -2.2536915582
O -2.073681559 1.069431262 0.6252865383
C -2.2720513784 0.8779769191 2.0464035514
C -2.1265420304 2.2295823382 2.7137334437
O -3.4721227175 -0.9388983231 -0.0755687434
C -4.6902810603 -0.6846363045 -0.7997201902
C -5.2975120646 0.6524097301 -0.4238561086
H 4.6690961067 -0.8334759725 -2.1849858603
H 3.2358367159 0.0904494887 -2.6567057601
H 4.844946302 0.6818813981 -3.0913989101
H 3.8400221384 1.9178498121 -1.1394759999
H 5.3756023052 1.1037589188 -0.710081723
H 0.8522718639 1.0584760253 2.3835610006
H 1.4156306197 -0.1813534456 3.5470492424
H 3.7604105683 0.7200204933 3.2575464232
H 3.1174917487 1.9817245042 2.1967997876
H 2.650414417 1.9438181609 3.9049739524
H -0.0331641263 -2.9179853833 -1.4757707374
H -0.0332033593 -1.1582204486 -1.8429245071
H -3.2658576217 0.4515670114 2.2039769119
H -1.5222774703 0.1654733303 2.4054316235
H -2.8961360487 2.9076325266 2.3565983128
H -2.2177380225 2.1099831162 3.7882341039
H -1.1558635748 2.6577270693 2.4770834077
H -4.4697503415 -0.7173405139 -1.8711547039
H -5.3386011343 -1.5184444537 -0.5273657233
H -6.2193177162 0.7978108674 -0.9782409844
H -5.5100068419 0.6906912959 0.6415193918
H -4.603117925 1.453901376 -0.6771961398
*
