  17
  -22.4907092700000       0.141119931730882      !mtd1
 C          2.7486241659       -0.0123876951        0.7282811213
 C          1.9712064425       -0.0140403211       -0.5904022506
 C          0.4958482453        0.0202668105       -0.3265299162
 C         -0.1909393657        1.2199234557       -0.1760451449
 C         -1.5458784900        1.1957967887        0.1088067742
 C         -2.1696450034       -0.0354548337        0.2367510718
 N         -1.5325033327       -1.1882248988        0.0979686689
 C         -0.2383545033       -1.1518625973       -0.1747262227
 H          2.4788039871       -0.8794196734        1.3268539590
 H          2.5216883198        0.8835593672        1.3015085160
 H          3.8175504740       -0.0410117802        0.5349423250
 H          2.2217341414       -0.9132036488       -1.1554767070
 H          2.2589324524        0.8579627782       -1.1801493797
 H          0.3310944067        2.1599414497       -0.2845208278
 H         -2.1068746122        2.1090346525        0.2284111518
 H         -3.2255622461       -0.1112814488        0.4584731255
 H          0.2383975946       -2.1182002710       -0.2812480746
  17
  -22.4907091200000       0.141097533651244      !mtd13
 C          2.7430225825       -0.0221468761       -0.7510628867
 C          1.9760632178       -0.0071095392        0.5736393515
 C          0.4985762405        0.0241370310        0.3215397181
 C         -0.1904082764        1.2220954648        0.1677231824
 C         -1.5478395513        1.1948151011       -0.1047267967
 C         -2.1718159553       -0.0378071013       -0.2173612440
 N         -1.5325169871       -1.1890346848       -0.0756014649
 C         -0.2360139042       -1.1496648615        0.1852234901
 H          2.4705313994       -0.8979173372       -1.3356226480
 H          3.8134972435       -0.0457944777       -0.5657794062
 H          2.5097362290        0.8653066794       -1.3348873215
 H          2.2684731430        0.8721608455        1.1501476216
 H          2.2310444581       -0.8991179144        1.1479548680
 H          0.3318616884        2.1633368378        0.2639977720
 H         -2.1105784310        2.1067494951       -0.2264793328
 H         -3.2296617791       -0.1160642693       -0.4288336332
 H          0.2424360738       -2.1147834970        0.2949793497
  17
  -22.4907090800000       0.141091561429856      !md3
 C          2.7484822181       -0.0184544727        0.7283258169
 C          1.9712383197       -0.0106748533       -0.5904013978
 C          0.4958576210        0.0222928161       -0.3265393232
 C         -0.1925202450        1.2211981892       -0.1777428792
 C         -1.5474475715        1.1956490063        0.1071664865
 C         -2.1695567465       -0.0362153520        0.2368777821
 N         -1.5308915153       -1.1883377740        0.0995611559
 C         -0.2368307295       -1.1506235328       -0.1731849877
 H          3.8174268836       -0.0465910070        0.5349435159
 H          2.4779762574       -0.8892139133        1.3211389457
 H          2.5221572226        0.8738124520        1.3075428201
 H          2.2216129305       -0.9059518890       -1.1616376525
 H          2.2592868186        0.8652953137       -1.1740732297
 H          0.3282270817        2.1618015984       -0.2874683474
 H         -2.1096549447        2.1083176608        0.2254718429
 H         -3.2253530057       -0.1131852471        0.4588024818
 H          0.2412132462       -2.1164199036       -0.2785855730
  17
  -22.4907090500000       0.141087082430237      !gc
 C          2.7423475562       -0.0256137853       -0.7514761277
 C          1.9761947665       -0.0049792235        0.5735882443
 C          0.4986065779        0.0254164755        0.3219413450
 C         -0.1910000839        1.2229024749        0.1670279821
 C         -1.5483342839        1.1946245371       -0.1058058563
 C         -2.1716048565       -0.0384659357       -0.2175803177
 N         -1.5317586088       -1.1891994428       -0.0746332323
 C         -0.2353105549       -1.1489056054        0.1864340300
 H          3.8129102792       -0.0500434098       -0.5667991603
 H          2.5096967495        0.8601365326       -1.3381227530
 H          2.4682547130       -0.9031464379       -1.3326288760
 H          2.2691188336        0.8766019924        1.1462683066
 H          2.2314934637       -0.8946858306        1.1512709347
 H          0.3307778213        2.1644748823        0.2628296712
 H         -2.1115586315        2.1060932639       -0.2284662860
 H         -3.2293259654       -0.1174499660       -0.4294536708
 H          0.2435994579       -2.1136768135        0.2971995386
  17
  -22.4907090500000       0.141087082430237      !mtd6
 C          2.7482083361       -0.0176737650        0.7286006679
 C          1.9712844306       -0.0111271838       -0.5904244357
 C          0.4958687822        0.0220905820       -0.3268043431
 C         -0.1922884090        1.2210388368       -0.1777610133
 C         -1.5471863191        1.1956385945        0.1074245987
 C         -2.1694512859       -0.0361213515        0.2371808060
 N         -1.5310334026       -1.1883261972        0.0994535994
 C         -0.2370392973       -1.1507386478       -0.1736850380
 H          2.5206908789        0.8745533872        1.3075486435
 H          3.8172593073       -0.0445437202        0.5353651177
 H          2.4785136352       -0.8887549663        1.3213790076
 H          2.2217776864       -0.9070624284       -1.1605900571
 H          2.2595406611        0.8639968086       -1.1751318850
 H          0.3285275928        2.1616626319       -0.2876771017
 H         -2.1092114077        2.1083332962        0.2259478443
 H         -3.2251470995       -0.1129746068        0.4596384863
 H          0.2408469905       -2.1167347730       -0.2792050146
  17
  -22.4907089600000       0.141073646283954      !md1
 C          2.7430193110       -0.0280170926       -0.7509089124
 C          1.9760954114       -0.0033990448        0.5736327688
 C          0.4985883023        0.0262379677        0.3213884288
 C         -0.1915012108        1.2233116809        0.1659330818
 C         -1.5489493302        1.1944714320       -0.1063526445
 C         -2.1718151989       -0.0388298400       -0.2172399684
 N         -1.5314469615       -1.1892799728       -0.0739078369
 C         -0.2349675102       -1.1484154818        0.1867246991
 H          2.5095571897        0.8550362593       -1.3412889091
 H          2.4706451637       -0.9081487010       -1.3287726279
 H          3.8134919083       -0.0501989888       -0.5653204411
 H          2.2686629858        0.8799877513        1.1436770798
 H          2.2311279631       -0.8912768631        1.1543478821
 H          0.3300049236        2.1651176029        0.2607620775
 H         -2.1124014716        2.1057528403       -0.2293648261
 H         -3.2296109417       -0.1183876379       -0.4284461338
 H          0.2442745288       -2.1129954862        0.2977658633
  17
  -22.4889724300000       2.245907984835121E-002 !mtd8
 C          2.8600461253        0.7151916561       -0.1764956880
 C          1.9740045075       -0.4859613854        0.1377524915
 C          0.4978637979       -0.2118452645        0.0693921035
 C         -0.0598822935        1.0498869606        0.2408828871
 C         -1.4364035770        1.1997570627        0.1787218397
 C         -2.2156977872        0.0785356777       -0.0510206207
 N         -1.7042642362       -1.1328155798       -0.2164798026
 C         -0.3901864952       -1.2621382553       -0.1580466188
 H          2.5863381500        1.1518490179       -1.1342877748
 H          3.8990325705        0.3998339011       -0.2263502671
 H          2.7777619452        1.4780115881        0.5933207315
 H          2.2062415645       -0.8502159075        1.1432704928
 H          2.2031630399       -1.2973459714       -0.5569439446
 H          0.5654640690        1.9104754536        0.4198766974
 H         -1.8939145190        2.1680891604        0.3059408119
 H         -3.2939286175        0.1410461591       -0.1086621985
 H         -0.0208305369       -2.2701401989       -0.3019469990
  17
  -22.4889654500000       2.229380372552059E-002 !gc
 C          2.8732944411        0.7239752026        0.1064106832
 C          1.9728853696       -0.4881133945       -0.0972189785
 C          0.4970455047       -0.2068671303       -0.0388765252
 C         -0.0512123487        1.0499710639        0.1836721971
 C         -1.4302955932        1.1938385465        0.2173157659
 C         -2.2196904751        0.0731975856        0.0268971921
 N         -1.7164051825       -1.1348806638       -0.1867226315
 C         -0.4017537474       -1.2591447684       -0.2166006659
 H          2.6945935268        1.4731451648       -0.6612146776
 H          3.9145557915        0.4177048676        0.0459791976
 H          2.7069941698        1.1711709995        1.0835328888
 H          2.2033935168       -1.2402721370        0.6625381303
 H          2.1920288293       -0.9413427873       -1.0681270521
 H          0.5797134940        1.9123907394        0.3299374836
 H         -1.8813102093        2.1585189354        0.3883049570
 H         -3.2994885576        0.1318494192        0.0439658807
 H         -0.0379022768       -2.2637463111       -0.3941456380
  17
  -22.4889654100000       2.229286009797333E-002 !md1
 C          2.8733727296        0.7234698997        0.1085449686
 C          1.9728496403       -0.4878440743       -0.0988445853
 C          0.4970104051       -0.2065818725       -0.0397160688
 C         -0.0512387889        1.0501815978        0.1830087116
 C         -1.4303457150        1.1938155019        0.2174304560
 C         -2.2197010018        0.0730065939        0.0276245858
 N         -1.7163788273       -1.1350020847       -0.1863190316
 C         -0.4017350162       -1.2590301479       -0.2170010691
 H          2.7059879377        1.1684787180        1.0865381893
 H          2.6960266835        1.4745564622       -0.6575301869
 H          3.9147130739        0.4170940617        0.0488371228
 H          2.2031381111       -1.2426184693        0.6584182286
 H          2.1919636421       -0.9378875422       -1.0712197959
 H          0.5797450579        1.9128401928        0.3285639056
 H         -1.8814901860        2.1584859525        0.3880730412
 H         -3.2995632198        0.1316384380        0.0448868491
 H         -0.0375833598       -2.2633929279       -0.3948188893
  17
  -22.4889649300000       2.228153968230718E-002 !gc
 C          2.8733224917        0.7177129105        0.1382253983
 C          1.9726345142       -0.4830289534       -0.1233332916
 C          0.4969239712       -0.2044986198       -0.0513271061
 C         -0.0513348976        1.0516991270        0.1747401130
 C         -1.4303249070        1.1934145311        0.2197049153
 C         -2.2195043499        0.0714564641        0.0362449512
 N         -1.7162077989       -1.1359076108       -0.1813579277
 C         -0.4016679878       -1.2582091144       -0.2215107008
 H          3.9145587975        0.4102234368        0.0834505534
 H          2.6919178767        1.1292746765        1.1283342189
 H          2.7100946948        1.4954324656       -0.6040020025
 H          2.2028764027       -1.2712269051        0.5988841251
 H          2.1917668159       -0.8886560142       -1.1152011949
 H          0.5796542962        1.9150425607        0.3151221734
 H         -1.8816643864        2.1573368497        0.3941635180
 H         -3.2992287885        0.1284436157        0.0622424060
 H         -0.0374673044       -2.2623108275       -0.4012470494
  17
  -22.4889257200000       2.137595514486329E-002 !mtd10
 C          2.8377368493       -0.7648710665        0.1367100202
 C          1.9834309555        0.4704991381       -0.1171013055
 C          0.4972794174        0.2501068325       -0.0569204390
 C         -0.3623129000        1.3316081776       -0.2436311344
 C         -1.7304928418        1.1389450867       -0.1914281467
 C         -2.2033313202       -0.1427152770        0.0486844210
 N         -1.4057567167       -1.1821779642        0.2283862013
 C         -0.0962268799       -0.9855226266        0.1759479117
 H          2.6415683775       -1.1753005883        1.1243025975
 H          3.8900059320       -0.4971834076        0.0813736696
 H          2.6418913837       -1.5322631587       -0.6082016792
 H          2.2239633408        0.8769406489       -1.1038501949
 H          2.2397846979        1.2413637487        0.6153078319
 H          0.0455530622        2.3154815917       -0.4282830307
 H         -2.4156655854        1.9596161974       -0.3331412450
 H         -3.2631171997       -0.3528599400        0.0992854508
 H          0.4956948501       -1.8758483119        0.3316094105
  17
  -22.4889255300000       2.137165779101164E-002 !gc
 C          2.8377055995       -0.7654748981        0.1342276593
 C          1.9834536199        0.4710441607       -0.1144905656
 C          0.4972853804        0.2502826634       -0.0562848832
 C         -0.3623364604        1.3316665914       -0.2438566517
 C         -1.7305223891        1.1388689317       -0.1918568864
 C         -2.2033023102       -0.1428140971        0.0484506836
 N         -1.4057408568       -1.1822499233        0.2282745394
 C         -0.0962231396       -0.9854285399        0.1761600746
 H          2.6439503894       -1.5281936379       -0.6159223178
 H          2.6391825282       -1.1821812567        1.1186473947
 H          3.8899934900       -0.4971836461        0.0832274022
 H          2.2249481338        0.8824074598       -1.0989771355
 H          2.2390023206        1.2380616319        0.6221822051
 H          0.0456121410        2.3154865926       -0.4286062148
 H         -2.4157910872        1.9595209196       -0.3332934120
 H         -3.2632253700       -0.3524603075        0.1005677969
 H          0.4960597591       -1.8756376730        0.3310789309
  17
  -22.4889253800000       2.136826575356295E-002 !gc
 C          2.8371745203       -0.7734856167        0.0884432200
 C          1.9838169720        0.4775276886       -0.0770384352
 C          0.4974477380        0.2535976263       -0.0384044654
 C         -0.3621917919        1.3329842979       -0.2365365390
 C         -1.7305012408        1.1372438374       -0.2004553202
 C         -2.2033786404       -0.1452569781        0.0349579631
 N         -1.4057582166       -1.1827428236        0.2256207326
 C         -0.0962078441       -0.9830709526        0.1890461941
 H          3.8893298936       -0.5068220404        0.0269262195
 H          2.6215390851       -1.4956704147       -0.6952495234
 H          2.6601155620       -1.2396340783        1.0545484210
 H          2.2279253823        0.9555844042       -1.0300003419
 H          2.2374362772        1.1921668091        0.7114770767
 H          0.0455809181        2.3175275486       -0.4177208582
 H         -2.4157475317        1.9562205997       -0.3513565747
 H         -3.2633228168       -0.3575654556        0.0730592361
 H          0.4959320955       -1.8717625906        0.3527796222
