  17
        -22.49070927
 C          2.7486241659       -0.0123876951        0.7282811213
 C          1.9712064425       -0.0140403211       -0.5904022506
 C          0.4958482453        0.0202668105       -0.3265299162
 C         -0.1909393657        1.2199234557       -0.1760451449
 C         -1.5458784900        1.1957967887        0.1088067742
 C         -2.1696450034       -0.0354548337        0.2367510718
 N         -1.5325033327       -1.1882248988        0.0979686689
 C         -0.2383545033       -1.1518625973       -0.1747262227
 H          2.4788039871       -0.8794196734        1.3268539590
 H          2.5216883198        0.8835593672        1.3015085160
 H          3.8175504740       -0.0410117802        0.5349423250
 H          2.2217341414       -0.9132036488       -1.1554767070
 H          2.2589324524        0.8579627782       -1.1801493797
 H          0.3310944067        2.1599414497       -0.2845208278
 H         -2.1068746122        2.1090346525        0.2284111518
 H         -3.2255622461       -0.1112814488        0.4584731255
 H          0.2383975946       -2.1182002710       -0.2812480746
