! pbe def2-sv(p) def2/J RI DEFGRID1 loosescf d4 GCP(DFT/SV(P)) printgap
%output
    printlevel normal
end
* xyz 0 1
C 3.8321503893 -0.146065776 2.6985127464
C 4.6515391102 -0.2106340508 1.4271966953
O 3.985449918 -0.9508041313 0.3748139741
P 2.644716846 -0.5498465468 -0.3454079236
S 2.4729238362 -1.5651835196 -2.0114201974
O 2.8186099084 1.0365323267 -0.4323203198
C 1.8004258826 1.963790656 -0.8312900598
C 1.6098705424 1.9949463811 -2.3344965724
S 1.060714956 -0.8500894188 1.0534268841
C -0.1593652658 -1.599524554 -0.0477264541
S -0.8913874836 -0.4426801495 -1.2489050674
P -2.3252969563 0.4664825173 0.0114958927
S -3.5115651685 1.7949469637 -0.8015566421
O -1.3524582368 0.9993171798 1.1437964737
C -1.7627679952 1.9961858427 2.1037110338
C -2.8110265864 1.4678976484 3.059530267
O -3.0679375757 -0.7416325132 0.7496670127
C -4.2950997608 -1.2905233344 0.2451342411
C -4.0828690482 -2.0732003533 -1.0355621862
H 2.924746198 0.4334913259 2.5378642333
H 3.5535518084 -1.1458857767 3.0211040895
H 4.4215510471 0.3301126755 3.4759931387
H 5.5761950897 -0.7708562283 1.5742636519
H 4.8782725304 0.7889192185 1.0522107004
H 0.8633354043 1.7079661062 -0.3250854197
H 2.1590132028 2.9260304636 -0.4597894045
H 0.8727421658 2.7511759654 -2.5864023235
H 2.5501417452 2.226711929 -2.8274387612
H 1.2569590482 1.030141985 -2.694389091
H -0.9403911316 -2.0082920533 0.5878085753
H 0.3249743314 -2.3698165614 -0.6470764227
H -0.8374525979 2.2516809886 2.6216484348
H -2.1402460132 2.8656015401 1.5561892263
H -3.7394255767 1.2751906926 2.5241111053
H -2.4684130659 0.5442616853 3.5185229341
H -2.997456696 2.2081316142 3.8313521485
H -4.65483769 -1.9279498903 1.0540540914
H -4.9982527054 -0.468715195 0.0755394393
H -3.3465800258 -2.859767431 -0.8895883688
H -5.0232640996 -2.5178337819 -1.3451038017
H -3.7332533829 -1.4065499657 -1.8239449179
*
