! pbe def2-sv(p) def2/J RI DEFGRID1 loosescf d4 GCP(DFT/SV(P)) printgap
%output
    printlevel normal
end
* xyz 0 1
C 3.5786173326 -0.9400744425 -3.0343618466
C 4.3146024309 -0.6365407008 -1.7466607177
O 3.6358548336 0.3386844014 -0.9322835781
P 2.116658294 0.2530165261 -0.4763531528
S 0.7778668661 0.8399608144 -1.7764065796
O 2.0891198145 1.232833034 0.7544868251
C 3.0348727527 1.2461688292 1.8522407237
C 2.4831128809 0.5048036845 3.0545468383
S 1.9954520022 -1.7494441527 0.2556434907
C 0.3248076089 -1.7186896693 0.9391069478
S -0.9839376398 -1.7891132671 -0.3353163325
P -2.1442715051 -0.1706718894 0.3521382468
S -1.2233161477 1.2540930015 1.3505409779
O -3.172231362 -0.9756052789 1.2509999777
C -3.9557080455 -0.3504630585 2.2864105708
C -5.0000266309 0.5834578269 1.7127845956
O -3.0720720565 0.2080804679 -0.8755488176
C -2.7205406461 0.9054808051 -2.0824949908
C -2.6375486559 2.4024704241 -1.8604839994
H 3.3975049215 -0.0247455308 -3.5932397356
H 4.1718025431 -1.6198016087 -3.6374040274
H 2.6174262296 -1.4049935697 -2.8173497682
H 5.2851305657 -0.1761508399 -1.9401779297
H 4.443171533 -1.5447892485 -1.1515375462
H 3.9810339422 0.8204336504 1.5136284379
H 3.1636803765 2.3072813237 2.0715518454
H 3.120063666 0.6997137861 3.9114336077
H 1.4773831272 0.8582938955 3.272527254
H 2.4555353096 -0.5668157415 2.8724796773
H 0.1842430433 -0.8026366687 1.5197048405
H 0.244060484 -2.6048730802 1.5628355378
H -4.4067244436 -1.1910579182 2.8148687301
H -3.2777088591 0.1927026301 2.9528420961
H -5.6124506494 0.0598031286 0.9835865818
H -5.6285013903 0.9602550126 2.5135888445
H -4.5095698717 1.4229091135 1.2211559733
H -1.7723992318 0.5214559331 -2.4671160072
H -3.5284263768 0.6496653597 -2.7707480125
H -2.4586550908 2.8918542312 -2.8121814028
H -3.5626337575 2.7749953324 -1.4281662043
H -1.8116723868 2.6378320892 -1.1919218077
*
