! pbe def2-sv(p) def2/J RI DEFGRID1 loosescf d4 GCP(DFT/SV(P)) printgap
%output
    printlevel normal
end
* xyz 0 1
C 3.283882316 0.603352915 -2.8515922597
C 3.1752489523 -0.5544317056 -1.880571407
O 3.4485683646 -0.1070974232 -0.528339524
P 2.3149005376 0.1537373827 0.5446904578
S 3.047729611 0.6651965954 2.2788318354
O 1.3691123657 -1.133515064 0.5682014407
C 1.5552711999 -2.2018091562 1.5141529042
C 2.7823426784 -3.0245604445 1.1815930767
S 1.0158359132 1.5408420523 -0.3678672793
C -0.0738431116 1.7759608496 1.0568138494
S -1.1836510299 0.3783811816 1.3971245417
P -1.8766520192 -0.0149997512 -0.6023545118
S -0.7692800471 -1.1777977871 -1.7250759808
O -2.1757260082 1.377210344 -1.2728311043
C -3.4205957868 2.116352609 -1.1650897388
C -3.6216487209 2.729207146 0.2048988548
O -3.3245499518 -0.6042887003 -0.3219194695
C -3.4901521997 -1.9333503395 0.2111755615
C -4.9471403229 -2.3183269803 0.0556063606
H 4.2541701144 1.0823242423 -2.752671836
H 3.165992614 0.2271928085 -3.8628704292
H 2.5059988522 1.3393963842 -2.6566583493
H 3.938273726 -1.3088902712 -2.0786271116
H 2.183049553 -1.0136930627 -1.9195310751
H 1.6355662217 -1.7673853051 2.5159792613
H 0.6376010807 -2.7867838192 1.4339000721
H 2.7071096151 -3.4193786906 0.1713195501
H 3.6732736054 -2.4005628925 1.2546531506
H 2.8668282657 -3.8462130548 1.8856781531
H -0.6633128973 2.6642548995 0.8447842736
H 0.5306506703 1.9107271104 1.9553473814
H -3.3201788233 2.8802989146 -1.937423543
H -4.2403305307 1.4407425927 -1.4122582464
H -4.5665599521 3.263953282 0.2123934318
H -3.6502591483 1.9543472311 0.967861861
H -2.8229738691 3.4292151283 0.4364569941
H -2.8323275793 -2.613546365 -0.3402432461
H -3.189440756 -1.9175474767 1.2627088212
H -5.5777549613 -1.6137842742 0.5897262286
H -5.2237571227 -2.3159984521 -0.9948831664
H -5.0963371588 -3.3130969059 0.4621734188
*
