! pbe def2-sv(p) def2/J RI DEFGRID1 loosescf d4 GCP(DFT/SV(P)) printgap
%output
    printlevel normal
end
* xyz 0 1
C 5.0442295017 -0.5078924171 -1.7457213119
C 3.7444480284 -1.2642184232 -1.9198364344
O 2.9743851116 -1.2863109041 -0.7001530021
P 2.2649724583 0.0093597934 -0.1292388381
S 1.6474599417 1.2851160079 -1.4943051778
O 3.3578797772 0.6071065141 0.856993439
C 3.2858057728 1.9376836521 1.3917573992
C 2.2134424279 2.0561751967 2.4556154574
S 0.9432530557 -0.9683496375 1.2007616049
C 0.095795097 -2.0719618368 0.0377115231
S -0.8580630124 -1.2086480417 -1.2513207856
P -1.992036569 0.107089681 -0.0353800187
S -1.2700827819 1.7768037004 0.6750578009
O -2.4729511502 -0.9549163778 1.0569704273
C -2.8161656782 -0.5624308543 2.40036639
C -4.1793393047 0.096769738 2.4432769294
O -3.2265126755 0.4351538384 -0.9726459805
C -4.0806284723 -0.5922343598 -1.5387266403
C -5.4997636432 -0.0624018708 -1.5689029448
H 5.6403123207 -0.6028411005 -2.6478710189
H 4.8356694997 0.5463293329 -1.5681198354
H 5.5986441668 -0.9038658883 -0.8990798507
H 3.9152072444 -2.3185965541 -2.1410431704
H 3.1341931811 -0.8087122642 -2.7065252266
H 4.2818168099 2.1111702327 1.8017020341
H 3.0919685284 2.6356182689 0.5700419734
H 2.3444813344 1.2849864352 3.2104578199
H 2.2724300585 3.034221032 2.9219679472
H 1.2252890614 1.9463286247 2.0073860628
H -0.5776389829 -2.6796393755 0.6371354477
H 0.8235864393 -2.6872725267 -0.4860368173
H -2.7941060566 -1.4949094097 2.9654981456
H -2.0446699126 0.1183927222 2.7725572844
H -4.9386816748 -0.5750679496 2.0512600631
H -4.4229042281 0.3555946347 3.468705009
H -4.162692823 1.0068509074 1.8436816135
H -3.7098812997 -0.8011332699 -2.5446474161
H -4.0023768758 -1.4950152993 -0.9279215655
H -5.5382007973 0.8594839739 -2.142209634
H -6.1451246533 -0.8017211776 -2.0322698131
H -5.8498071049 0.1408006242 -0.560488677
*
