! pbe def2-sv(p) def2/J RI DEFGRID1 loosescf d4 GCP(DFT/SV(P)) printgap
%output
    printlevel normal
end
* xyz 0 1
C 3.3561119654 -3.14138685 0.4672061255
C 2.9810354929 -1.7334347558 0.9005299268
O 2.7256546779 -0.8902598149 -0.239089474
C 1.548044074 -0.9411976833 -0.8108822807
O 0.632585021 -1.6602177257 -0.4486200392
C 1.4268855676 0.011900633 -1.9775269155
C 0.2148504685 0.9214263528 -1.7948552607
H 0.0857437262 1.5492773266 -2.6824054622
C 0.2922458279 1.843137124 -0.5867627012
O -0.6913143847 2.3747534205 -0.1138580369
O 1.518469678 2.014651404 -0.1703321343
C 1.7336039419 2.8569037127 0.9809710177
C 3.2180760902 3.1446111631 1.0749812358
S -1.3721915398 0.0169290744 -1.7043729582
P -1.5755673984 -0.5211685043 0.3510394399
S -0.3709533332 -0.0310652576 1.8176698055
O -3.0731168603 0.0157513942 0.6259432302
C -3.4071511667 1.3879079499 0.8206395219
O -1.8916806505 -2.0676219247 0.3815967074
C -2.7651669246 -2.7161439716 -0.5597389228
H 2.51482842 -3.6154049753 -0.0334898964
H 4.2047239644 -3.1103012334 -0.2106286411
H 3.6165945518 -3.7258554855 1.3432980923
H 3.8049049432 -1.2427112636 1.4182334999
H 2.0901093105 -1.7406840835 1.5360301811
H 1.2855218122 -0.5751539407 -2.8865428334
H 2.3354538376 0.6078718824 -2.0484515608
H 1.1398087491 3.7675266872 0.8576929581
H 1.3628492876 2.3150389946 1.8576156446
H 3.5530064021 3.6849314082 0.1946967011
H 3.4077609386 3.7443767692 1.9585212672
H 3.7692132708 2.2121833723 1.1495991459
H -4.4342572238 1.390095122 1.1766314813
H -3.3182259546 1.9339400701 -0.1183943079
H -2.7421282626 1.8384872527 1.558801035
H -3.7456185881 -2.242488157 -0.5504340051
H -2.828355552 -3.746051358 -0.218102494
H -2.3312859382 -2.6679940284 -1.558283559
*
