  21
        -33.55140715
 C         -0.4038982070       -2.0768183350        0.8733753921
 O          0.5562170205       -1.4361643882        0.0382072913
 C          0.3911696149       -0.0750311209       -0.2012464707
 C         -0.7774223282        0.2066962509       -1.1982937400
 C         -2.0686900627        0.2139024319       -0.5811180113
 N         -3.1083820770        0.2379984982       -0.1002080817
 O          0.2341848882        0.5562884989        1.0406907631
 C          0.1003084522        1.9749545134        1.0110850800
 O          1.5220316320        0.3777629034       -0.8730661756
 C          2.7778868297        0.0755618555       -0.2558102613
 H         -0.4207044937       -1.6197262677        1.8628375034
 H         -0.0674326825       -3.1077885546        0.9337203803
 H         -1.4006808048       -2.0289482234        0.4295121586
 H         -0.5883818833        1.1749630785       -1.6657082715
 H         -0.7347290680       -0.5703934516       -1.9642748891
 H          0.8349583219        2.4168179776        0.3354355335
 H          0.2849426339        2.2975514218        2.0320203525
 H         -0.9107112038        2.2587085620        0.7098426466
 H          3.5069630563        0.6604071475       -0.8085828022
 H          2.9903655287       -0.9901309635       -0.3404608998
 H          2.7641282884        0.3669913722        0.7956961878
