! pbe def2-sv(p) def2/J RI DEFGRID1 loosescf d4 GCP(DFT/SV(P)) printgap
%output
    printlevel normal
end
* xyz 0 1
C 3.0132262764 1.7301466733 -2.7577329306
C 3.1016243487 1.4983249056 -1.2648167566
O 2.5065797776 0.2098483041 -0.9849623548
P 2.0955415352 -0.2090544317 0.4759475716
S 1.1242958134 1.0802470456 1.5962217075
O 3.5255444772 -0.5763806123 1.0808840024
C 3.7060330209 -0.9210200336 2.468159405
C 5.1660229655 -0.7139495219 2.8175945054
S 1.1763205855 -2.0659419007 0.1252508262
C -0.4194328637 -1.8297967259 0.9872073137
S -1.8595066329 -1.9107591724 -0.1045734616
P -1.9917039087 0.0964692849 -0.7335334051
S -0.5233400564 0.9467499084 -1.7068965296
O -2.3416961523 0.7803000122 0.6695544804
C -2.162464128 2.1861271732 0.9011338686
C -3.2201973805 3.003268284 0.1897541697
O -3.279298072 0.0992679828 -1.6557974364
C -4.4519539598 -0.7340731986 -1.4973777882
C -5.2081829221 -0.4403307451 -0.2191453898
H 3.4537074592 2.6922201256 -2.9973952794
H 3.5414656636 0.9431654515 -3.2875482047
H 1.9700268527 1.7223053808 -3.0652946677
H 2.5477114076 2.2635371654 -0.7104146111
H 4.1373048885 1.4752683435 -0.9165812974
H 3.0545668307 -0.2815061345 3.0736502315
H 3.4090453106 -1.9650249828 2.5982423712
H 5.4384611585 0.3295537075 2.6866333738
H 5.3274067144 -0.9988141593 3.8519854136
H 5.7910405692 -1.3249443846 2.1728084655
H -0.402128337 -0.8691870486 1.5090960864
H -0.5349785053 -2.658042981 1.6809999853
H -2.2203318453 2.2883854551 1.9857431368
H -1.1602682071 2.4735422902 0.5668316445
H -3.0603275678 4.0564229125 0.3980395044
H -3.1468593503 2.837853698 -0.8851924333
H -4.2114807957 2.7150364152 0.5286869535
H -5.0466046256 -0.4967228746 -2.3812080149
H -4.1370972863 -1.7797724817 -1.5336390744
H -6.0931946336 -1.0678218613 -0.1821822684
H -4.5849579208 -0.6554916037 0.6459092537
H -5.5098013031 0.6033502063 -0.1898723169
*
