! pbe def2-sv(p) def2/J RI DEFGRID1 loosescf d4 GCP(DFT/SV(P)) printgap
%output
    printlevel normal
end
* xyz 0 1
C 3.3689140459 -0.7184444851 -3.1593868122
C 4.1940907972 -0.5363234642 -1.9034848358
O 3.5809390503 0.3588699134 -0.954892235
P 2.0908056447 0.2499079976 -0.4167634211
S 0.6932929142 0.9744810969 -1.5828367884
O 2.1587457009 1.1175553523 0.8944196957
C 3.1647177243 1.0129870065 1.9326725147
C 2.6797939904 0.1465483242 3.0787598273
S 1.9901588972 -1.8098789537 0.1239996739
C 0.3452837663 -1.8884986919 0.873574507
S -1.0176687526 -1.7120120762 -0.3241778436
P -1.9131027997 0.0306280926 0.458731896
S -0.9822121689 1.0497838988 1.8388509506
O -3.2467237132 -0.6887989898 0.9904384283
C -4.1013774279 -0.0859120582 1.9777159325
C -4.8936503904 1.0730668152 1.4066567797
O -2.3519075165 0.929801908 -0.767141051
C -2.9035944401 0.3598106458 -1.9786793985
C -3.7886722966 1.4043049418 -2.6251644512
H 3.9147806542 -1.3392409113 -3.862330095
H 2.421871149 -1.2005989279 -2.9199248947
H 3.1555152303 0.245051944 -3.6165166171
H 5.1517429401 -0.0597274335 -2.1205027433
H 4.358108702 -1.4959168407 -1.4058221101
H 4.0880351101 0.6283864341 1.4959175603
H 3.3094461899 2.0449810664 2.2560339153
H 3.3622524733 0.2554856476 3.9155504314
H 1.6868022729 0.4690555181 3.3858130871
H 2.6430611361 -0.9003753567 2.7877763377
H 0.2455523011 -1.1049108839 1.6295304176
H 0.2761288693 -2.879796449 1.313883326
H -4.7501960367 -0.9021129439 2.298546333
H -3.4800836804 0.2476855909 2.81527045
H -5.5543556908 1.4693796744 2.1713374088
H -4.213279297 1.8609449425 1.0830986691
H -5.4845322035 0.743712922 0.5555631585
H -2.0596071129 0.0992819166 -2.623189972
H -3.4621463528 -0.5454863255 -1.7222296642
H -4.1727893634 1.0119125573 -3.5610155552
H -4.6182602902 1.6579707758 -1.9709566071
H -3.2085316827 2.3016206821 -2.8213216406
*
