! pbe def2-sv(p) def2/J RI DEFGRID1 loosescf d4 GCP(DFT/SV(P)) printgap
%output
    printlevel normal
end
* xyz 0 1
C 3.5836056217 1.6644454139 -1.8688174808
C 3.4031128913 0.1818565922 -2.118290869
O 2.2513741975 -0.3492149263 -1.4269381117
P 2.0596536813 -0.3273272785 0.1367642046
S 1.4152073417 1.2935440101 1.047176818
O 3.5099069373 -0.7946047516 0.6122774299
C 3.8953801457 -0.824414623 2.0005574797
C 4.7407632708 0.387161565 2.3428171261
S 0.8490931735 -2.0386800649 0.3996567626
C -0.4420124871 -1.3854765252 1.5128878693
S -2.1064750587 -1.4088149754 0.8035612756
P -2.0169758753 0.3292151689 -0.4253834498
S -0.7258453862 0.3824072344 -1.8949291046
O -1.808392593 1.5238971909 0.578399697
C -2.6434328519 1.7930663191 1.7326317309
C -3.7424519057 2.7764727128 1.3877197789
O -3.5323396753 0.4894427148 -0.8804866141
C -4.0566058988 -0.1441508815 -2.0604120137
C -4.0766734039 -1.65391492 -1.939234293
H 2.6728099708 2.1997456095 -2.1308080651
H 3.7991494965 1.8435814137 -0.8157957145
H 4.4066232095 2.0373392251 -2.4701470002
H 4.2831910284 -0.3824658533 -1.8019845672
H 3.1802677965 -0.0238446353 -3.1665997673
H 2.9989378338 -0.859381817 2.6256237759
H 4.458858788 -1.7519334006 2.1158478872
H 4.1520332188 1.2953605533 2.2318071919
H 5.0777440129 0.3083245874 3.3711847533
H 5.6031118925 0.4410299815 1.6843149806
H -0.1706577046 -0.3606955994 1.7873957981
H -0.4855207849 -2.0359142967 2.3820862115
H -3.0583860713 0.8498020888 2.0986010105
H -1.95113389 2.2089578089 2.467834513
H -4.4211648499 2.3429793715 0.6583206213
H -4.2928043589 3.0211755308 2.2908364615
H -3.31236217 3.683777175 0.9721622538
H -5.0630064384 0.2669361554 -2.1509642453
H -3.4484448146 0.1655826887 -2.9160176094
H -4.5953625457 -2.0756788806 -2.7941246473
H -3.0577265067 -2.0387106197 -1.9216544619
H -4.5807069981 -1.9543778878 -1.0240386649
*
