  19
  -24.3294027700000       7.631629978310811E-002 !gc
 C         -2.4464792673        1.1098040589        0.4979480118
 C         -1.7174054267       -0.0918528497       -0.0293875422
 C         -2.3708679498       -1.1504902961       -0.4976898211
 C         -0.2449719009       -0.0383853215       -0.0178679399
 C          0.5046200385       -1.1837622110        0.2480743319
 C          1.8860832519       -1.1408997962        0.2616590291
 C          2.5490518158        0.0486050229        0.0084835311
 C          1.8173579837        1.1946624836       -0.2528283629
 C          0.4351367502        1.1539471062       -0.2601500509
 H         -2.4178277977        1.9196498326       -0.2298893563
 H         -3.4874712824        0.8667452911        0.6924957830
 H         -1.9834429334        1.4641083614        1.4166240331
 H         -1.8610349010       -2.0020910778       -0.9138813307
 H         -3.4468937450       -1.1914969412       -0.5017111463
 H         -0.0042924294       -2.1109717176        0.4652869766
 H          2.4485985972       -2.0380471509        0.4748362074
 H          3.6281560253        0.0824226625        0.0184329437
 H          2.3263866413        2.1265833445       -0.4506309328
 H         -0.1181830575        2.0553800859       -0.4739293818
  19
  -24.3294027700000       7.631629978310811E-002 !mtd3
 C         -2.4466715676        1.1103049492        0.4967695001
 C         -1.7174327205       -0.0918919806       -0.0291878584
 C         -2.3707832494       -1.1507860150       -0.4971441866
 C         -0.2450076177       -0.0384712609       -0.0174172713
 C          0.5047319577       -1.1838465701        0.2480216595
 C          1.8862074475       -1.1410003305        0.2611119731
 C          2.5491159664        0.0485199154        0.0079534812
 C          1.8172887502        1.1947290963       -0.2523663456
 C          0.4350706212        1.1540019211       -0.2592180746
 H         -1.9843359873        1.4650678442        1.4155657314
 H         -2.4172613671        1.9196147887       -0.2315996206
 H         -3.4878049000        0.8674601398        0.6905639793
 H         -1.8606776180       -2.0025573928       -0.9127247496
 H         -3.4467900841       -1.1917667888       -0.5018672424
 H         -0.0039941242       -2.1112149492        0.4650484631
 H          2.4487129260       -2.0382683747        0.4737061964
 H          3.6282261633        0.0823804679        0.0174805269
 H          2.3262615494        2.1267776816       -0.4497328097
 H         -0.1182734276        2.0556052479       -0.4721635409
  19
  -24.3294027500000       7.631468464977077E-002 !mtd6
 C         -2.4431945705        1.1004827665       -0.5337217758
 C         -1.7175632371       -0.0914500666        0.0199186445
 C         -2.3739616328       -1.1411194026        0.5040218177
 C         -0.2450954753       -0.0382374088        0.0165767298
 C          0.5062304950       -1.1881540822       -0.2234830512
 C          1.8877628323       -1.1453475283       -0.2287192456
 C          2.5490374626        0.0485878308        0.0073242036
 C          1.8156264752        1.1991678710        0.2427102490
 C          0.4333918157        1.1584295104        0.2414307396
 H         -3.4821680083        0.8529649313       -0.7331225032
 H         -2.4218127288        1.9223234097        0.1808534427
 H         -1.9726568933        1.4399346974       -1.4541591984
 H         -1.8665508534       -1.9846302742        0.9392160717
 H         -3.4499850119       -1.1822044997        0.5023721870
 H         -0.0011632968       -2.1192662795       -0.4271367564
 H          2.4516380178       -2.0461810974       -0.4217472262
 H          3.6281760151        0.0823544771        0.0037867953
 H          2.3233792017        2.1346844901        0.4263991521
 H         -0.1213919698        2.0635881207        0.4346677311
  19
  -24.3294027200000       7.631226201414294E-002 !md5
 C         -2.4231055985       -0.2730406236        1.2323258637
 C         -1.7186547913       -0.0178297578       -0.0686241383
 C         -2.3931944719        0.1692581217       -1.1987098526
 C         -0.2456558820        0.0004302358       -0.0384780387
 C          0.4686979004       -0.8489992231        0.8047838422
 C          1.8512958145       -0.8296067150        0.8234020829
 C          2.5491119867        0.0465694753        0.0094961476
 C          1.8518049184        0.9040518421       -0.8254220463
 C          0.4700261415        0.8806749217       -0.8493388068
 H         -1.9622802225        0.2996335102        2.0345162431
 H         -3.4721968662       -0.0009704914        1.1552863820
 H         -2.3651893618       -1.3289327897        1.4934363485
 H         -1.9000296417        0.3144896348       -2.1442880210
 H         -3.4697454607        0.1598585510       -1.2201211199
 H         -0.0577909769       -1.5444646731        1.4400512770
 H          2.3871604385       -1.5014178913        1.4777957694
 H          3.6285047222        0.0638102207        0.0278111644
 H          2.3876304198        1.5967436940       -1.4577317397
 H         -0.0658594588        1.5657706069       -1.4891696665
  19
  -24.3294027100000       7.631145448592869E-002 !md6
 C         -2.4033880306       -1.1968973752       -0.5068922962
 C         -1.7197208364        0.0304274218        0.0222799346
 C         -2.4122843717        1.0652035304        0.4877614305
 C         -0.2462910151        0.0296587833        0.0164515558
 C          0.4749903291       -1.1375947488        0.2619017482
 C          1.8577923839       -1.1288450249        0.2606174076
 C          2.5492015723        0.0426464670        0.0023133914
 C          1.8452165203        1.2075446996       -0.2544197197
 C          0.4630408681        1.2009756929       -0.2468604246
 H         -2.3481049105       -2.0049018655        0.2214420273
 H         -3.4518070631       -0.9914008590       -0.7049857748
 H         -1.9248792677       -1.5346745566       -1.4238817372
 H         -1.9344863162        1.9344899854        0.9055017327
 H         -3.4890888824        1.0676757480        0.4884662713
 H         -0.0466463215       -2.0582638741        0.4733504035
 H          2.3989922474       -2.0419577250        0.4607956593
 H          3.6288561432        0.0473795671       -0.0028677738
 H          2.3761139934        2.1242204333       -0.4654548581
 H         -0.0776699044        2.1094049020       -0.4666144014
  19
  -24.3294026900000       7.630983945513564E-002 !md3
 C         -2.4033602346       -1.1980114521       -0.5043938172
 C         -1.7196879583        0.0304689434        0.0221217200
 C         -2.4124432343        1.0660982200        0.4854583206
 C         -0.2462815734        0.0298012419        0.0163317856
 C          0.4749438595       -1.1372201451        0.2631165865
 C          1.8577485214       -1.1285455623        0.2619765418
 C          2.5492277713        0.0426188755        0.0023846175
 C          1.8453167751        1.2072473130       -0.2557386197
 C          0.4631366368        1.2007714079       -0.2482324666
 H         -3.4509982836       -0.9921747939       -0.7059357370
 H         -1.9229761508       -1.5398325995       -1.4187951846
 H         -2.3509266180       -2.0033158328        0.2271517562
 H         -1.9348708258        1.9366646947        0.9007023712
 H         -3.4892457863        1.0685223682        0.4857462535
 H         -0.0467890797       -2.0576348399        0.4753731601
 H          2.3989158991       -2.0415218018        0.4628929281
 H          3.6288922241        0.0472885994       -0.0028741992
 H          2.3762278961        2.1236810117       -0.4678625888
 H         -0.0774636908        2.1089912926       -0.4691175753
  19
  -24.3294026900000       7.630983945513564E-002 !gc
 C         -2.4463986424        1.1092196825        0.4995611665
 C         -1.7174432785       -0.0918208811       -0.0294341046
 C         -2.3706690013       -1.1497081239       -0.4996748336
 C         -0.2449870206       -0.0384926675       -0.0175769658
 C          0.5046231846       -1.1836071533        0.2492078483
 C          1.8861183664       -1.1406585209        0.2626331867
 C          2.5490036730        0.0485708369        0.0081354532
 C          1.8172161061        1.1944491270       -0.2539246312
 C          0.4350109856        1.1537177676       -0.2608002068
 H         -3.4867156604        0.8652620126        0.6961698455
 H         -1.9818448635        1.4637663667        1.4173294104
 H         -2.4199816089        1.9191843071       -0.2282730995
 H         -1.8603798013       -2.0006321961       -0.9166961311
 H         -3.4466852696       -1.1911022460       -0.5037423197
 H         -0.0042467133       -2.1107395309        0.4670274826
 H          2.4486060117       -2.0376481749        0.4763894428
 H          3.6281091447        0.0824875278        0.0179950447
 H          2.3262186869        2.1262626405       -0.4522841288
 H         -0.1184779734        2.0549430248       -0.4749199598
  19
  -24.3294026700000       7.630822445880944E-002 !md6
 C         -2.4039110407       -1.1958878156       -0.5084054347
 C         -1.7196867038        0.0304184415        0.0223138770
 C         -2.4117623421        1.0645639449        0.4899277312
 C         -0.2462592972        0.0294880272        0.0159934135
 C          0.4749807292       -1.1379722947        0.2604573034
 C          1.8577878002       -1.1291090801        0.2596812686
 C          2.5491844310        0.0426786249        0.0027666286
 C          1.8452246533        1.2077285972       -0.2533611638
 C          0.4630653682        1.2010448251       -0.2462627970
 H         -1.9254467549       -1.5331447588       -1.4255289100
 H         -2.3494600952       -2.0045962145        0.2191758187
 H         -3.4520703752       -0.9895181401       -0.7065354486
 H         -1.9335520963        1.9333171053        0.9082899156
 H         -3.4885714579        1.0672679045        0.4911500425
 H         -0.0466922756       -2.0588530669        0.4708351537
 H          2.3990021072       -2.0423155950        0.4593677056
 H          3.6288379577        0.0475706071       -0.0017043170
 H          2.3761579392        2.1246395923       -0.4633948321
 H         -0.0777138644        2.1095846153       -0.4654006782
  19
  -24.3294026500000       7.630660949637563E-002 !gc
 C         -2.4226630590       -0.2740721544        1.2322646976
 C         -1.7186705268       -0.0179641947       -0.0687135262
 C         -2.3937331863        0.1704919157       -1.1982976242
 C         -0.2456568578        0.0001364783       -0.0388797223
 C          0.4687360912       -0.8491407332        0.8045672600
 C          1.8512780810       -0.8293549750        0.8236350218
 C          2.5491290298        0.0469594253        0.0098457023
 C          1.8518411049        0.9040596348       -0.8254181544
 C          0.4700387637        0.8802788931       -0.8497509963
 H         -3.4725439657       -0.0049027574        1.1548829842
 H         -2.3618847239       -1.3295174848        1.4943117233
 H         -1.9635052786        0.3006648669        2.0339209458
 H         -1.9010090379        0.3162027325       -2.1440345922
 H         -3.4702924513        0.1617249471       -1.2191982171
 H         -0.0577795033       -1.5445699537        1.4398715554
 H          2.3872216154       -1.5005925907        1.4785732994
 H          3.6285036397        0.0647327134        0.0289080779
 H          2.3875472483        1.5968634212       -1.4576727213
 H         -0.0657372346        1.5652728468       -1.4898028409
  19
  -24.3294026200000       7.630418711709631E-002 !mtd4
 C         -2.4428657577        1.0998663308       -0.5353412435
 C         -1.7175692882       -0.0914236323        0.0201439170
 C         -2.3740978235       -1.1406674059        0.5050552744
 C         -0.2450972904       -0.0382091307        0.0170047433
 C          0.5061477006       -1.1880643966       -0.2237373048
 C          1.8876822816       -1.1452681646       -0.2293213497
 C          2.5489831668        0.0486414193        0.0070295144
 C          1.8156053259        1.1991479376        0.2431594489
 C          0.4333711088        1.1583892325        0.2423288075
 H         -1.9703895210        1.4394529176       -1.4546811043
 H         -3.4811107362        0.8516070296       -0.7371458813
 H         -2.4235518212        1.9221164762        0.1790207819
 H         -1.8666616745       -1.9838899172        0.9409104404
 H         -3.4501198898       -1.1817080651        0.5034275657
 H         -0.0013780142       -2.1190986594       -0.4275653642
 H          2.4515185530       -2.0459506183       -0.4231213931
 H          3.6281258299        0.0825166343        0.0031351942
 H          2.3233400759        2.1345396102        0.4275747602
 H         -0.1214176486        2.0633545513        0.4364346529
  19
  -24.3294026100000       7.630337967432976E-002 !mtd8
 C         -2.4435235382        1.1015267249       -0.5309761879
 C         -1.7175855443       -0.0915016677        0.0197562629
 C         -2.3740219263       -1.1421241410        0.5019013684
 C         -0.2450912784       -0.0381832221        0.0160569036
 C          0.5063920309       -1.1882973449       -0.2230509428
 C          1.8879026572       -1.1456111061       -0.2275624673
 C          2.5491694234        0.0484935378        0.0078423933
 C          1.8156640629        1.1993049379        0.2416569621
 C          0.4334151557        1.1586275725        0.2400232117
 H         -2.4212177702        1.9219890098        0.1851738980
 H         -1.9739563104        1.4429791254       -1.4511820369
 H         -3.4827801693        0.8547923229       -0.7299408596
 H         -1.8667753150       -1.9865154210        0.9356536745
 H         -3.4500531053       -1.1831977907        0.4999145481
 H         -0.0009587367       -2.1195280133       -0.4262070416
 H          2.4518012992       -2.0466534327       -0.4194504017
 H          3.6283200378        0.0822003308        0.0048890863
 H          2.3233279700        2.1349699802        0.4248086792
 H         -0.1212787361        2.0640119239        0.4323656845
  19
  -24.3294024200000       7.628803988650813E-002 !mtd10
 C         -2.4232083739       -0.2786785185        1.2311687989
 C         -1.7186172615       -0.0174760053       -0.0685393061
 C         -2.3935813785        0.1740208105       -1.1976689952
 C         -0.2456611876        0.0010186174       -0.0384228855
 C          0.4686155852       -0.8481278404        0.8053234447
 C          1.8511640117       -0.8291179824        0.8239019868
 C          2.5492555407        0.0462877470        0.0093363533
 C          1.8521483991        0.9034912124       -0.8259411980
 C          0.4703197881        0.8806381726       -0.8496639275
 H         -2.3670357289       -1.3361500255        1.4863879575
 H         -1.9614267579        0.2888735258        2.0364598700
 H         -3.4718704538       -0.0045320275        1.1558162330
 H         -1.9010878791        0.3226245211       -2.1430490261
 H         -3.4701895590        0.1654057933       -1.2183432605
 H         -0.0580796579       -1.5430039903        1.4410498542
 H          2.3869408898       -1.5002868699        1.4790396962
 H          3.6286372274        0.0634858260        0.0279485619
 H          2.3880591841        1.5958403027       -1.4585358498
 H         -0.0650438684        1.5657336437       -1.4898930897
  19
  -24.3279772300000       1.688435525637310E-002 !gc
 C         -2.4121821310       -1.0188273407        0.7934319581
 C         -1.7205980440        0.0169378523       -0.0483814839
 C         -2.4531689161        0.8686815748       -0.7644459282
 C         -0.2471530634        0.0324817626       -0.0323040658
 C          0.4710573090       -0.8697766474        0.7565588283
 C          1.8537516567       -0.8633957947        0.7794892589
 C          2.5638886287        0.0449664690        0.0147946616
 C          1.8707900732        0.9473511927       -0.7748506952
 C          0.4897916114        0.9403800201       -0.7979453506
 H         -2.1591512896       -0.8898005718        1.8443730207
 H         -3.4897655683       -0.9293217838        0.6868879974
 H         -2.1178932661       -2.0212132361        0.4874203572
 H         -2.0351248376        1.6377078919       -1.3880436628
 H         -3.5288179708        0.8227247577       -0.7482577473
 H         -0.0460514502       -1.5921596487        1.3665924792
 H          2.3794042106       -1.5742695850        1.4002126688
 H          3.6433002558        0.0505793962        0.0325797169
 H          2.4107356819        1.6624593906       -1.3781796330
 H         -0.0161589765        1.6559187956       -1.4258751268
  19
  -24.3279755400000       1.685418711543905E-002 !gc
 C         -2.4527450793        1.2122656948        0.0013942919
 C         -1.7184097223       -0.0994055333       -0.0075375317
 C         -2.4146921460       -1.2351486929       -0.0212784469
 C         -0.2456138595       -0.0535659026       -0.0014544557
 C          0.5289518721       -1.2169602530        0.0072104783
 C          1.9090984741       -1.1630508973        0.0127372602
 C          2.5636316907        0.0575304905        0.0104084041
 C          1.8157875902        1.2215322011        0.0026042969
 C          0.4339568864        1.1672164006       -0.0033094707
 H         -2.1999613149        1.7991158142       -0.8799987237
 H         -3.5256058224        1.0405977087        0.0029077463
 H         -2.1953885177        1.7903717345        0.8871720148
 H         -1.9648945396       -2.2112027019       -0.0299757377
 H         -3.4913863476       -1.2240905421       -0.0251869591
 H          0.0535885587       -2.1845998536        0.0105782798
 H          2.4786998910       -2.0808953167        0.0191245410
 H          3.6423856554        0.0993700893        0.0148758763
 H          2.3110364005        2.1815746071        0.0011016422
 H         -0.1131451613        2.0956849994       -0.0098321746
  19
  -24.3279743800000       1.683351119186347E-002 !gc
 C         -2.4528336437        1.2122640409       -0.0037559152
 C         -1.7184464400       -0.0993961151       -0.0073372786
 C         -2.4148772238       -1.2351246809       -0.0162458270
 C         -0.2455752228       -0.0535893591       -0.0012214724
 C          0.5290675498       -1.2169879636        0.0047355451
 C          1.9091903050       -1.1630577422        0.0103089195
 C          2.5636629748        0.0575435670        0.0104794986
 C          1.8158193257        1.2215364709        0.0050166122
 C          0.4339875136        1.1672128785       -0.0007778334
 H         -2.1982219745        1.7921728610        0.8816489267
 H         -2.1971752408        1.7972397462       -0.8855457084
 H         -3.5257363762        1.0407016683       -0.0051108316
 H         -1.9652787865       -2.2112502308       -0.0202736855
 H         -3.4915526203       -1.2239313288       -0.0203580452
 H          0.0537346767       -2.1846235534        0.0055027006
 H          2.4788547880       -2.0808729360        0.0146986649
 H          3.6424063749        0.0993904819        0.0149712288
 H          2.3110775943        2.1815745155        0.0053058621
 H         -0.1131303715        2.0956732195       -0.0051661389
  19
  -24.3278901300000       1.539770847487861E-002 !md4
 C         -2.4309201616       -0.9191662865       -0.8948724860
 C         -1.7169029586        0.0120542002        0.0462215850
 C         -2.3852446684        0.8151460341        0.8670279647
 C         -0.2426668984        0.0164837057        0.0202628935
 C          0.4792516462       -1.1747557622        0.0332495123
 C          1.8620111436       -1.1614610641        0.0271869207
 C          2.5481350708        0.0411437067       -0.0023480570
 C          1.8413269893        1.2321626333       -0.0170165367
 C          0.4587753131        1.2199536014       -0.0016531167
 H         -2.9171869223       -0.3397805338       -1.6785630767
 H         -1.7400947307       -1.6108860203       -1.3673729851
 H         -3.1995288731       -1.4830829083       -0.3710568342
 H         -1.8824596216        1.4799386851        1.5481696546
 H         -3.4617819953        0.8205190561        0.8970292576
 H         -0.0442265938       -2.1187090005        0.0738565509
 H          2.4070601348       -2.0937999283        0.0458102688
 H          3.6277184694        0.0501107033       -0.0132738710
 H          2.3697851068        2.1738110199       -0.0419440807
 H         -0.0900689117        2.1499309236       -0.0228689960
  19
  -24.3274005300000       9.171735287308710E-003 !gc
 C         -2.3771584024        0.3517836932       -1.2203542566
 C         -1.7262260255       -0.0592012473        0.0654187522
 C         -2.4009406251       -0.4281145386        1.1423050340
 C         -0.2428497071       -0.0231592693        0.0521573523
 C          0.4845435261       -1.1278689429       -0.3744506511
 C          1.8673986139       -1.0877768667       -0.4030601888
 C          2.5376923936        0.0582602097       -0.0093540678
 C          1.8196360214        1.1631919782        0.4163096631
 C          0.4367810326        1.1230786773        0.4466190156
 H         -2.0433147429       -0.2968283791       -2.0292314930
 H         -3.4595526848        0.2990023939       -1.1427891302
 H         -2.0852795805        1.3702384609       -1.4736403125
 H         -1.9006667224       -0.7178808815        2.0510438661
 H         -3.4776458284       -0.4558679940        1.1555203417
 H         -0.0397558344       -2.0223493316       -0.6787275154
 H          2.4232810293       -1.9528255204       -0.7334198176
 H          3.6166987745        0.0897975603       -0.0331421850
 H          2.3380575272        2.0586987741        0.7257266981
 H         -0.1251799855        1.9832124048        0.7811822862
  19
  -24.3273990500000       9.157382414687819E-003 !mtd8
 C         -2.3929330327        0.5825754730        1.1003849191
 C         -1.7254538176       -0.0722627418       -0.0706909127
 C         -2.3860831653       -0.6475419245       -1.0625141551
 C         -0.2422595582       -0.0319424954       -0.0472525537
 C          0.4792991874       -1.0344663548        0.5896834128
 C          1.8619002231       -0.9894332108        0.6230366715
 C          2.5376634287        0.0600707247        0.0234118185
 C          1.8253451095        1.0634647593       -0.6118125306
 C          0.4427802706        1.0182318112       -0.6465858650
 H         -3.4741220137        0.5101339198        1.0226725027
 H         -2.0671033923        0.1091888299        2.0255682591
 H         -2.1068189471        1.6324291044        1.1496260104
 H         -1.8732581679       -1.1086367431       -1.8898621039
 H         -3.4624223749       -0.6796347906       -1.0849516747
 H         -0.0493176713       -1.8544253489        1.0542610979
 H          2.4132896158       -1.7752698300        1.1178649854
 H          3.6164859307        0.0955630745        0.0505065610
 H          2.3480991924        1.8834777193       -1.0816247063
 H         -0.1146571458        1.7985560008       -1.1444993955
