! r2scan-3c def2/J RI DEFGRID2 scfconv6 printgap
%output
    printlevel normal
end
%cpcm
    smd true
    smdsolvent "water"
end
* xyz 0 1
C 4.114065656 -1.4508248084 -2.3637597315
C 4.455251282 -1.5080076029 -0.8886413523
O 3.2793884343 -1.5474007892 -0.062177097
P 2.2941679658 -0.3107843155 0.0812297106
S 3.1590798578 1.4512000623 0.1657168499
O 1.4378586046 -0.7310113341 1.3481045847
C 1.7769957869 -0.2969340007 2.6816393664
C 3.0604414868 -0.9350248231 3.1690396039
S 0.8494385474 -0.602308118 -1.4335473702
C 0.1249705236 1.0574401032 -1.3292857823
S -0.7599466627 1.3499170238 0.2184185744
P -2.6058816669 0.3816549903 -0.2922419509
S -2.9175357926 0.0834078529 -2.1977269443
O -3.7149460468 1.3160227602 0.311301355
C -3.7225571113 1.7383705265 1.700777141
C -4.4016814524 3.089765553 1.7735501971
O -2.7026054958 -0.8625860599 0.7015745068
C -1.8054038537 -1.9833169317 0.7652457077
C -1.9207156932 -2.8909702779 -0.4427335572
H 3.43009381 -2.2543974547 -2.6252942505
H 3.6413762964 -0.4985495608 -2.6015018089
H 5.0238047347 -1.5463078785 -2.9478621542
H 5.0531522564 -0.6377258972 -0.5990262853
H 4.9861011607 -2.4260164226 -0.6332098352
H 1.8601750703 0.7945969084 2.6780689988
H 0.9188186095 -0.5998205586 3.2827928943
H 3.8996614152 -0.5797688872 2.5721599525
H 3.2264990409 -0.6635546488 4.2068150669
H 2.9994520357 -2.0165073848 3.0808753337
H -0.5679168052 1.1482359916 -2.1666199573
H 0.9194702665 1.8014789168 -1.3791132071
H -4.2662372915 0.981214944 2.2684400138
H -2.6900065731 1.7916333189 2.0579740817
H -3.8392683237 3.8230265925 1.2021505371
H -5.4052390635 3.0225703634 1.3635276736
H -4.4557126093 3.4069091589 2.8099568246
H -0.7812083566 -1.6155637544 0.8795576118
H -2.1100103978 -2.5004108145 1.6774426594
H -2.9547049734 -3.193310928 -0.5877929965
H -1.5793995495 -2.3794811248 -1.3408068707
H -1.3054379452 -3.7712274645 -0.2866008186
*
