! pbe def2-sv(p) def2/J RI DEFGRID1 loosescf d4 GCP(DFT/SV(P)) printgap
%output
    printlevel normal
end
* xyz 0 1
C 4.1925104001 -0.1377905699 -2.3492472932
C 4.369607517 0.6013301442 -1.0385122423
O 3.6896798241 -0.0490656949 0.0477538773
P 2.1057472916 -0.150492202 0.1331145218
S 1.1540511791 1.4819638494 -0.4242278872
O 1.8884137133 -0.5954802505 1.6367629543
C 1.7227188604 0.3491147964 2.7120596026
C 3.0178608988 1.0598155332 3.0446986761
S 1.6689150177 -1.9746182312 -0.8187648455
C -0.1016868936 -1.7389266808 -1.1264423429
S -1.0511865551 -1.3696438926 0.380637477
P -2.1979708319 0.3049510569 -0.3091784682
S -1.9822899772 0.8282794322 -2.1784374218
O -1.9096482126 1.4621797238 0.7190329836
C -2.1405436071 1.320806074 2.1447945409
C -1.7223783401 2.6194632431 2.802102189
O -3.6909693497 -0.082599749 0.1019008506
C -4.5768181211 -0.8095044629 -0.7664224603
C -4.0787781694 -2.2085525682 -1.0662295456
H 4.4626690129 -1.1843460418 -2.2327260345
H 3.1537900513 -0.0776881785 -2.6730973439
H 4.8221490462 0.3172013826 -3.1072123797
H 3.9889452373 1.6246758867 -1.1212342497
H 5.4133605151 0.616572649 -0.7218795955
H 0.9523857464 1.0706777257 2.4208973692
H 1.3680441051 -0.2611876371 3.5438050224
H 2.8746570082 1.6741906906 3.9281747783
H 3.8053308548 0.3343385003 3.2298027894
H 3.3154441663 1.6968669279 2.2128746156
H -0.4495441299 -2.6831805841 -1.5384924407
H -0.2549396995 -0.9192479985 -1.8348930267
H -3.200368187 1.1114165406 2.3014196204
H -1.5488246587 0.4726017717 2.5034292782
H -1.8209326706 2.5240815461 3.878440165
H -0.690138461 2.8504941265 2.5509693731
H -2.3492892578 3.4334531137 2.4499272902
H -5.5194442936 -0.8256402997 -0.2174312144
H -4.6937666466 -0.2384388123 -1.6924385091
H -3.8485356207 -2.7362384313 -0.144112704
H -4.8449350919 -2.7504122055 -1.6113065786
H -3.1814939898 -2.1552708298 -1.6814893226
*
