! pbe def2-sv(p) def2/J RI DEFGRID1 loosescf d4 GCP(DFT/SV(P)) printgap
%output
    printlevel normal
end
* xyz 0 1
C 2.6659685547 -1.0899849424 -2.6445305787
C 2.9082609803 0.2543046824 -1.9882479855
O 3.2241176138 0.0944132253 -0.5921157737
P 2.1902411429 0.2548001036 0.5992520237
S 1.2358950311 1.9580160501 0.7349632053
O 3.1102106188 0.0714927054 1.86702208
C 3.961427116 -1.0806370378 2.0900319275
C 5.3750197429 -0.8100805878 1.6176950065
S 1.0013784706 -1.51015547 0.5412322456
C -0.3895519035 -0.9161872365 1.5605537288
S -1.9997614564 -1.2627958542 0.8205033721
P -2.0615123737 0.3347344726 -0.5926743092
S -0.6894468205 0.3176105042 -1.9881799038
O -2.0212719554 1.6642248319 0.254649014
C -3.1439015133 2.2947943923 0.9173215438
C -3.7306895609 1.443648896 2.0237935226
O -3.5554365272 0.2969739717 -1.1292611722
C -3.9479208291 -0.5128482698 -2.252777342
C -3.8098393797 -1.9935189175 -1.9664377113
H 2.5382661905 -0.9402193428 -3.7115149208
H 3.5089473341 -1.7516609506 -2.467661872
H 1.7615727252 -1.547113124 -2.2498995007
H 2.0355983162 0.9054287198 -2.0934557483
H 3.7833701975 0.7514418985 -2.4111191449
H 3.9271753927 -1.234772221 3.1700147152
H 3.5285657622 -1.9444024046 1.5772242452
H 5.7677199549 0.0761727008 2.1086150928
H 5.9997015503 -1.6633247834 1.8629355725
H 5.3907594851 -0.6496767825 0.5432566957
H -0.2710006327 0.162659468 1.6965906727
H -0.3741569329 -1.44624124 2.508896708
H -2.7085254789 3.2174252467 1.3055341188
H -3.8967016134 2.5265921807 0.1616494953
H -4.1740362654 0.5391704572 1.6134174253
H -2.9615172878 1.1682271387 2.741278125
H -4.5001118939 2.0162010355 2.5325792794
H -4.9867933105 -0.2280761498 -2.4251506298
H -3.3343057558 -0.2290118088 -3.1133665509
H -2.7576100364 -2.2532585804 -1.8576334198
H -4.3314522821 -2.2545156455 -1.0490879114
H -4.2269432727 -2.5587241396 -2.7936094968
*
