! r2scan-3c def2/J RI DEFGRID2 scfconv6 printgap
%output
    printlevel normal
end
%cpcm
    smd true
    smdsolvent "water"
end
* xyz 0 1
C 3.9184622847 -1.163899579 -2.7186177584
C 4.2343047402 -1.5839436842 -1.2976227312
O 3.0470825079 -1.716254731 -0.496570611
P 2.1644965775 -0.463610555 -0.061819732
S 3.2168565097 1.1243638809 0.4153867272
O 1.2807988366 -1.1164057591 1.0787231953
C 1.7018097729 -1.1569926007 2.4602398129
C 0.9920348598 -0.0811548648 3.2583854222
S 0.7208613474 -0.2744744451 -1.5825875545
C 0.2280787263 1.4320107597 -1.2150239304
S -0.5056212166 1.6314946329 0.4317910976
P -2.1761872527 0.3870230379 0.1270470643
S -2.9819695588 0.344056058 -1.663451938
O -3.1951933942 0.7881638885 1.2836108333
C -4.2011251726 1.8012868563 1.1089497961
C -3.599632931 3.1872698457 0.9967373724
O -1.6119561513 -0.9770122583 0.7009399469
C -2.2414353878 -2.2503851391 0.4369830551
C -1.4840560469 -2.9984416647 -0.6424066084
H 4.8259532978 -1.1963524291 -3.3129211105
H 3.1765443904 -1.8289508285 -3.1534730863
H 3.5260123011 -0.1479367586 -2.7283229542
H 4.8940432171 -0.8536112635 -0.8180866462
H 4.6871924289 -2.5755752318 -1.2605683288
H 1.4317136143 -2.155973371 2.806401095
H 2.7871639007 -1.0308777248 2.5121775463
H 1.304044141 0.9053324948 2.9211065056
H -0.0835855522 -0.1684701985 3.1242117116
H 1.2365761847 -0.192839019 4.3097857762
H -0.4973734064 1.7087579893 -1.9790784438
H 1.1016278895 2.0824489096 -1.2382579757
H -4.7813713011 1.5599046965 0.2124934067
H -4.8282779234 1.703488069 1.9960200977
H -3.030356037 3.2725760068 0.0721060164
H -4.3957476495 3.9247762807 0.9892116717
H -2.9349309471 3.3800478135 1.8350836861
H -2.2092670622 -2.7815422433 1.3896522798
H -3.2820729037 -2.0860956299 0.1426319081
H -0.433577185 -3.0766021863 -0.3723124337
H -1.9047407322 -3.9925685588 -0.7540292108
H -1.5592000049 -2.4695028846 -1.5904497315
*
