! pbe def2-sv(p) def2/J RI DEFGRID1 loosescf d4 GCP(DFT/SV(P)) printgap
%output
    printlevel normal
end
* xyz 0 1
C 1.7972068989 -1.0098221145 -2.832027879
C 2.6898659556 -0.0605890459 -2.0573367403
O 1.9609895064 0.5466060945 -0.9608855826
P 2.0798325088 0.1251639488 0.5515877571
S 0.9763730635 1.3020804124 1.6596451834
O 3.6532285391 0.162439547 0.7625235017
C 4.3672577793 -0.4874120282 1.8331836764
C 3.8600915044 -0.0909634143 3.2033115935
S 1.6189656119 -1.9397590554 0.7297354785
C -0.1663975165 -1.763776672 0.9369435398
S -1.0690294543 -1.5812611775 -0.6389975716
P -1.8285500285 0.3886041038 -0.6451396179
S -0.8702446921 1.9073843752 -1.4168092143
O -2.2420842252 0.4901807869 0.8982723522
C -2.4893027636 1.7584157446 1.5287631455
C -3.7893675835 2.3707794283 1.0514323418
O -3.1653484912 0.2055414003 -1.4833722745
C -4.1830294937 -0.7769622244 -1.1743210903
C -4.1864700767 -1.8755556026 -2.2186563274
H 2.3193719387 -1.3350228278 -3.7260457827
H 1.5380702713 -1.8811822033 -2.2347835769
H 0.8809544697 -0.4986543855 -3.1213451892
H 2.9939325127 0.7858181814 -2.6753008072
H 3.5727374426 -0.5673281444 -1.6626203238
H 4.2874186602 -1.5681591105 1.6881185987
H 5.3991138912 -0.1660959217 1.6807471267
H 4.4891714856 -0.5424172338 3.9635681692
H 3.8772272253 0.9906210603 3.3161990282
H 2.8352729221 -0.4329402536 3.3394731024
H -0.3695232391 -0.8993790033 1.5709515732
H -0.5157489993 -2.687960675 1.3888974144
H -2.509253469 1.5254565026 2.5944420937
H -1.6434913886 2.4220047272 1.3216326356
H -4.6181720367 1.6925604113 1.2375607715
H -3.9600924455 3.3033599688 1.5797425453
H -3.7269941991 2.5762190471 -0.0171678508
H -4.004946039 -1.1777097923 -0.1731015795
H -5.1222170698 -0.220744364 -1.1857304682
H -4.3185024529 -1.4445437816 -3.2070266665
H -3.246742983 -2.4227091395 -2.1979718573
H -5.0036903614 -2.5592169613 -2.0121319443
*
