! pbe def2-sv(p) def2/J RI DEFGRID1 loosescf d4 GCP(DFT/SV(P)) printgap
%output
    printlevel normal
end
* xyz 0 1
C 5.4340177047 -1.3406016074 0.4703295298
C 4.1287243367 -1.7909576885 -0.1524462465
O 3.5765157613 -0.7645644948 -1.0154316495
P 2.5567127537 0.3432603151 -0.5437497183
S 2.085644296 1.5265820173 -2.0275425036
O 3.2942440849 1.0195145109 0.6906885453
C 2.9200178596 2.3076962483 1.2107353681
C 1.5712804174 2.2774163663 1.8996050535
S 0.9726040292 -0.7686721252 0.343687332
C 0.0577332311 -1.0575344648 -1.2086348288
S -1.5883905723 -1.6960933392 -0.8839463202
P -2.5115751156 0.0814351056 -0.1206219374
S -1.5283889591 1.7395602417 -0.4717562162
O -2.8182525221 -0.2249130848 1.4087683144
C -1.8090723133 -0.1533502565 2.4347920651
C -2.5146738426 -0.1774002096 3.7753274971
O -3.9530821873 0.1167706026 -0.7460157564
C -5.0721891803 -0.7082460785 -0.3310015107
C -4.8094976782 -2.1850186187 -0.5303425788
H 5.8611489399 -2.1664526217 1.0307152311
H 6.1306226184 -1.035412592 -0.3057696362
H 5.2654120222 -0.5016477574 1.1394575628
H 3.389597825 -2.042279121 0.6137920283
H 4.2804115713 -2.6431117198 -0.8174358916
H 3.7227965886 2.5477439932 1.9095829034
H 2.9153179234 3.0272729728 0.386264192
H 1.4094495057 3.2202621367 2.4120531944
H 0.7777406511 2.1445786729 1.1643614567
H 1.5334951089 1.4622754391 2.6183140107
H 0.573713949 -1.8090089359 -1.8021591537
H -0.0090453756 -0.1063747117 -1.7434792214
H -1.1348542396 -1.0071151461 2.3187631569
H -1.2374062801 0.7696119415 2.296556013
H -3.0921440874 -1.0914717424 3.8762206099
H -1.773563279 -0.1318146631 4.566184248
H -3.1828780523 0.6748032693 3.8609333034
H -5.288275905 -0.4849371074 0.7148636334
H -5.8863497927 -0.3538223207 -0.9648548585
H -4.5346631246 -2.3872777177 -1.5623412519
H -3.999157225 -2.516655437 0.1163222249
H -5.7088389292 -2.7408335196 -0.28380989
*
