! pbe def2-sv(p) def2/J RI DEFGRID1 loosescf d4 GCP(DFT/SV(P)) printgap
%output
    printlevel normal
end
* xyz 0 1
C 4.027411816 -2.6179476062 0.7124806419
C 2.5130012088 -2.5933686774 0.5852687289
O 2.1095026206 -1.8878588906 -0.6031379283
C 2.0088098972 -0.5773740504 -0.5610982157
O 2.197954296 0.1108020729 0.4201459284
C 1.6219030873 0.0033075613 -1.9096314283
C 0.3188264302 0.7993691904 -1.7958032101
H 0.1839692939 1.4143365502 -2.6889545809
C 0.3191807627 1.6936718055 -0.5711952651
O -0.4876849368 1.5507417161 0.3323932703
O 1.214381672 2.628043093 -0.6491545996
C 1.4203820441 3.5258160092 0.4658915862
C 2.8469989066 3.3743477018 0.9620613885
S -1.1470983527 -0.2827992193 -1.7398178212
P -1.710486821 -0.5450741919 0.3029030021
S -0.5395368165 -0.9931825053 1.8080194311
O -2.9301654816 0.4602265081 0.586646099
C -2.9448458027 1.5192912782 1.5407549223
O -2.5527552176 -1.8876919387 0.0562698012
C -3.653574712 -2.0079239316 -0.8591957269
H 4.470334827 -3.0490084679 -0.1811781818
H 4.4072862905 -1.6082461189 0.8498496005
H 4.3009015616 -3.2164309534 1.5748907886
H 2.0487293144 -2.1123427689 1.4519247394
H 2.1039036012 -3.5954266939 0.4557910424
H 1.5071916446 -0.7988553736 -2.6366368059
H 2.4183838412 0.6832962116 -2.2179188206
H 1.2353769139 4.5284722166 0.0752411577
H 0.6994075683 3.2842897753 1.2502440506
H 3.0174466822 2.3457180888 1.271463706
H 3.5481062242 3.6275205827 0.1727902779
H 3.0033093911 4.0330789752 1.8096106291
H -3.9391643956 1.5119985899 1.9829334738
H -2.7521450535 2.4638032194 1.0348513165
H -2.1869865018 1.349334082 2.3067354665
H -4.3461485696 -1.1786021642 -0.727289502
H -4.1310759445 -2.9509935572 -0.6045948246
H -3.2826925381 -2.0303126445 -1.8835631116
*
