! wb97x-v def2-tzvp def2/J RIJCOSX DEFGRID2 scfconv7 GCP(DFT/TZ) printgap
%output
    printlevel normal
end
* xyz 0 1
C 1.2503064590249735 -0.17913445796293748 3.82651135663805e-06
C -0.10656987910465561 0.44454619308316656 6.1284838601647676e-06
C -1.2568219413648427 -0.22806826123140142 -3.835046757499957e-06
H 1.8257779561574075 0.14042690745351716 0.877616666993426
H 1.8257368674220218 0.14035009570516668 -0.8776647557553877
H 1.1915022492913128 -1.2715358660266471 5.0984579120774886e-05
H -0.13199847568199724 1.5349702162044712 4.263249172177352e-06
H -2.2142696639166566 0.2859165495771348 1.953312969680047e-06
H -1.2748211056139847 -1.3164395679279384 6.682718162104291e-06
*
