! r2scan-3c def2/J RI DEFGRID2 scfconv6 printgap
%output
    printlevel normal
end
%cpcm
    smd true
    smdsolvent "water"
end
* xyz 0 1
C 0.2255295603 -2.2148531313 2.5415748037
C 1.5345243167 -1.8743813741 1.8596830958
O 1.524616024 -0.4778552272 1.4956284211
P 2.2893672394 0.1233941686 0.2451007581
S 3.2248233649 -1.2129910289 -0.8512217835
O 3.163050157 1.1946655434 1.0212192456
C 3.761934704 2.3673515212 0.4388807068
C 4.6386783282 2.0489505172 -0.7548108767
S 0.8798432452 1.3324951561 -0.7822704766
C 0.2859031779 0.0527436492 -1.9123401861
S -0.5187519394 -1.3202769267 -1.0445416195
P -2.128283139 -0.2098268105 -0.2446868383
S -2.8737802851 1.1987621973 -1.391531388
O -1.5637397222 0.2505069705 1.1549171496
C -2.0576571259 1.3910198497 1.8928475563
C -0.9106760197 2.3364813398 2.1905253064
O -3.136734084 -1.353592558 0.2101577431
C -3.9660434969 -2.0682192417 -0.7296554614
C -5.3554224267 -1.463322991 -0.7835466658
H 0.2538519043 -3.2527231924 2.8572108387
H 0.0813669929 -1.5765081844 3.4083509715
H -0.6095311976 -2.0723663655 1.8600304261
H 1.6872316298 -2.4789301655 0.9591174529
H 2.3799746576 -2.0260507514 2.5352911759
H 2.9615225363 3.0578268604 0.1584598441
H 4.3438328181 2.7902182396 1.25980358
H 4.0349508494 1.6578414788 -1.5725038949
H 5.1384169916 2.9535516813 -1.086029695
H 5.383595686 1.3022942863 -0.4897380207
H 1.1256649109 -0.3778896192 -2.457578231
H -0.4263535129 0.5338032558 -2.5821934883
H -2.8360465775 1.888562556 1.3055980227
H -2.4920542632 0.9883192203 2.8097279161
H -0.5652191826 2.8119513179 1.27561563
H -1.2482575951 3.0997330944 2.8840830006
H -0.0825340469 1.7867154293 2.6314321372
H -3.4925465356 -2.0524172755 -1.7154083153
H -3.9910359859 -3.0930739327 -0.3550726353
H -5.9766001914 -2.0531426262 -1.4497279886
H -5.7972079155 -1.4549911588 0.2088241558
H -5.3065680049 -0.4422476703 -1.1555459374
*
