! pbe def2-sv(p) def2/J RI DEFGRID1 loosescf d4 GCP(DFT/SV(P)) printgap
%output
    printlevel normal
end
* xyz 0 1
C 5.6900431862 -0.9433718296 0.0646912641
C 4.9358812049 -0.7558411992 -1.2352165801
O 3.5344145609 -1.0731189499 -1.1037439594
P 2.5470691089 -0.1971812409 -0.2300705633
S 2.8654642941 1.7409356751 -0.2487142576
O 2.6849364689 -0.8813439497 1.1995603421
C 2.2430463715 -0.2558572863 2.4156713417
C 0.7607452108 -0.466700276 2.6488677682
S 0.7340485885 -0.9163776943 -1.061648641
C 0.0190264595 0.6715436345 -1.5760839169
S -0.8955967307 1.5155293928 -0.2608502398
P -2.5817004914 0.2398087164 -0.3109347617
S -3.2614379091 -0.2327753156 -2.0802296318
O -3.683497305 0.9620655984 0.5665603888
C -3.5028126354 1.2903933939 1.9677947667
C -3.0735984047 2.7338570065 2.1355403646
O -2.0226236707 -0.9776985473 0.564454208
C -2.4639844959 -2.3308810365 0.3572633438
C -3.8558781984 -2.5442566285 0.9167753871
H 5.509273927 -1.9383873414 0.4626592909
H 6.7525924038 -0.8125286527 -0.1152317752
H 5.3616662131 -0.2053672626 0.7949924613
H 5.2845599658 -1.4419956326 -2.0081995977
H 5.0239074423 0.2770716067 -1.5869489803
H 2.839836066 -0.733485361 3.1945532432
H 2.4818806616 0.8121378983 2.3673753712
H 0.1814777718 0.0485606971 1.884961697
H 0.5225542715 -1.5265223354 2.6123398063
H 0.4918097775 -0.068698536 3.6221027062
H -0.6644002964 0.4590565928 -2.3984787
H 0.8139043544 1.3503635701 -1.8816426237
H -4.4850589875 1.1175884577 2.4109533535
H -2.7717035264 0.6047134536 2.4022384462
H -2.0915696445 2.8963678492 1.695644789
H -3.7862861796 3.3930648253 1.6478690331
H -3.0326195082 2.9705059965 3.1941088615
H -2.4395399724 -2.546346665 -0.7154240911
H -1.717113446 -2.9387087468 0.8693263509
H -4.5626704373 -1.9018505883 0.3916671324
H -4.1476851211 -3.5797121623 0.7730032371
H -3.880583963 -2.3062943245 1.9769028044
*
