! wb97x-v def2-tzvp def2/J RIJCOSX DEFGRID2 scfconv7 GCP(DFT/TZ) printgap
%output
    printlevel normal
end
%cpcm
    smd true
    smdsolvent "water"
end
* xyz 0 1
C 2.3947807208498335 -6.446700651422978e-05 0.054115912540762603
N 0.9988147597744009 -2.677067701953035e-05 -0.38700541375410047
C 0.322406908523881 1.192811966708423 0.14748373179001154
C -1.153647002807509 1.2002670134841387 -0.22183674661957
N -1.8782067028006633 7.247921804902653e-06 0.2366228579417387
C -1.1536886621036258 -1.200255591287282 -0.22189571919517168
C 0.32236637982540545 -1.1928700036771576 0.14742175501081997
H 2.908591519609009 0.8871974684878298 -0.330615011300119
H 2.908594834431642 -0.8872652966712755 -0.33075364878013824
H 2.4886074230422444 -0.00015013453199270565 1.155873868859234
H 0.4176368765031039 1.233659016213583 1.2520490947272038
H 0.811368664709148 2.0884905761751322 -0.25497765465081035
H -1.6258155151151152 2.089179445350746 0.2093787620949467
H -1.2620080057197534 1.2721242616747683 -1.3114048384459371
H -1.8208086497995113 -1.8917375982902864e-05 1.254512487760108
H -1.625885917531443 -2.0891718887178046 0.20928061218871358
H -1.2620566296640976 -1.272059319866362 -1.3114665494694866
H 0.41759664661517687 -1.2337749668381779 1.2519848184847613
H 0.8112977050400756 -2.088545175526763 -0.2550842679340347
*
