! pbe def2-sv(p) def2/J RI DEFGRID1 loosescf d4 GCP(DFT/SV(P)) printgap
%output
    printlevel normal
end
* xyz 0 1
C 4.5535209832 0.7595157398 -2.2174778846
C 4.8716144025 -0.2299812508 -1.1154399346
O 3.7041817834 -0.9519762362 -0.6842912272
P 2.5048109908 -0.2440074365 0.085746772
S 3.0753602655 1.1103108036 1.3901264609
O 1.7306884268 -1.4896372474 0.6807734432
C 2.237780788 -2.1928703044 1.8414213487
C 1.066373438 -2.81139939 2.5743433481
S 1.1496798297 0.3572418124 -1.4051713859
C 0.2119064269 1.5139466815 -0.3624726049
S -0.8237770994 0.6988222623 0.8771642807
P -2.4480106592 0.226441075 -0.4374566334
S -2.0980923377 -0.9439809114 -1.9623612231
O -2.957294626 1.6460053903 -0.9042900105
C -3.4625492564 2.6617684171 0.0003521141
C -4.9737453457 2.6008651504 0.0846414421
O -3.5834309279 -0.2648450077 0.5598098996
C -3.7323586869 -1.6483386655 0.9259641285
C -2.5408807031 -2.1544153796 1.7112574164
H 3.9183905622 1.5552731459 -1.8298486499
H 5.4760485984 1.1940495262 -2.5887603597
H 4.0325730209 0.2632434333 -3.0326953775
H 5.2974225345 0.2845039497 -0.2479253441
H 5.5515594423 -1.0114637739 -1.4568870319
H 2.938602156 -2.9515642403 1.4857211527
H 2.7713999538 -1.4770076877 2.4765342893
H 0.528444308 -3.4847400068 1.913339645
H 1.4371220268 -3.366468271 3.4297967732
H 0.3886587117 -2.0338010852 2.9157415406
H -0.4084758941 2.1010294467 -1.0363348512
H 0.9124955924 2.144305144 0.1864024056
H -3.0041193797 2.5231100207 0.9830074309
H -3.1292470297 3.6053141369 -0.4361025555
H -5.404796841 2.6822516737 -0.9094683626
H -5.2898924937 1.6609438001 0.5282362164
H -5.3275169042 3.4240701015 0.6975233005
H -4.6467105846 -1.6657742214 1.5206028238
H -3.8680076729 -2.234152718 0.0117051554
H -2.3517842273 -1.5106337395 2.5670211776
H -2.7345563553 -3.165405499 2.0546928997
H -1.6579458543 -2.1602828108 1.0726363669
*
