  22
  -51.0273155300000       0.500068782664314      !md1
 C         -4.0851087227        0.0042425462        0.0041708004
 C         -3.3980461993        0.9346756332        0.7652744573
 C         -2.0140744744        0.9249267695        0.7567789861
 C         -1.2991776857        0.0005481836        0.0002866837
 C         -2.0185453415       -0.9219377585       -0.7542728793
 C         -3.4025683401       -0.9279830134       -0.7588774026
 Cl        -1.1430408597       -2.0734815447       -1.7112123018
 C          0.1802309780       -0.0009768442       -0.0010506934
 C          0.8996953506        0.9203620551       -0.7579559443
 C          2.2844582970        0.9332770556       -0.7683918805
 C          2.9612986935       -0.0011927254       -0.0006205002
 C          2.2840605893       -0.9359043107        0.7665016031
 C          0.8992964194       -0.9228017487        0.7556380600
 Cl         0.0354252773       -2.0715054721        1.7114576585
 Cl         4.6867792646       -0.0007362071        0.0003494475
 Cl         0.0363166587        2.0687038118       -1.7147184233
 Cl        -1.1329322966        2.0742415419        1.7112610301
 H         -5.1625973730        0.0057236393        0.0055006241
 H         -3.9237454659        1.6615572294        1.3615305532
 H         -3.9319585555       -1.6531608854       -1.3538351814
 H          2.8195118795        1.6548810018       -1.3624824553
 H          2.8188735526       -1.6575175792        1.3608248929
  22
  -51.0273152700000       0.499931217335686      !md1
 C         -4.0850263514        0.0007757388        0.0013481931
 C         -3.4006396908        0.7667403264        0.9297808175
 C         -2.0166176197        0.7608391380        0.9220539018
 C         -1.2992133299        0.0020862354        0.0015625909
 C         -2.0158932046       -0.7572076660       -0.9190958778
 C         -3.3998502517       -0.7644775805       -0.9270858441
 Cl        -1.1368672015       -1.7165252512       -2.0659122233
 C          0.1802349470        0.0015349604        0.0012026600
 C          0.8994799919        0.7578723826       -0.9207550774
 C          2.2842380451        0.7656372447       -0.9361318031
 C          2.9611688933       -0.0044802921       -0.0036507191
 C          2.2841535381       -0.7708961116        0.9317392974
 C          0.8993839103       -0.7571602571        0.9212793586
 Cl         0.0355964827       -1.7121491950        2.0706345886
 Cl         4.6867266529       -0.0092045722       -0.0075091419
 Cl         0.0357139206        1.7167165341       -2.0669833312
 Cl        -1.1385880288        1.7209003097        2.0690696176
 H         -5.1624829330        0.0000236416        0.0014653368
 H         -3.9285599081        1.3647516565        1.6535731954
 H         -3.9270125736       -1.3630515789       -1.6509598261
 H          2.8191719829        1.3592557095       -1.6582402444
 H          2.8189790685       -1.3668217273        1.6520182536
