! pbe def2-sv(p) def2/J RI DEFGRID1 loosescf d4 GCP(DFT/SV(P)) printgap
%output
    printlevel normal
end
* xyz 0 1
C 4.1469473606 -0.7279886758 -2.1912429794
C 4.3730372922 -0.7922106448 -0.6942259967
O 3.1381296709 -0.7298028798 0.0381619883
P 2.2794410686 0.6155664343 0.1094895818
S 3.3581901481 2.2494290546 0.1958806296
O 1.3331333331 0.3528179535 1.3530447122
C 1.8455267943 0.3070885261 2.704944833
C 2.1229214209 -1.1222553821 3.1239065106
S 0.8332255 0.4886928612 -1.4215682219
C 0.2938447021 -1.2329822101 -1.1607826741
S -0.8131376952 -1.462181634 0.2479070802
P -2.3372036728 -0.1295375757 -0.4065491811
S -2.6428848911 -0.0487267944 -2.3364209794
O -1.9571153228 1.307720617 0.1284127355
C -1.7338558207 1.60957316 1.524390303
C -2.9576643453 2.2644433384 2.130837119
O -3.5566115891 -0.5111063359 0.5395522077
C -4.0610008812 -1.8456252825 0.744677835
C -4.416285726 -2.5463688589 -0.5492993675
H 3.4844554427 -1.5257054114 -2.5173677362
H 3.7003756057 0.2305482383 -2.4563646065
H 5.099319532 -0.8230535198 -2.7028518366
H 5.0089591994 0.0373155968 -0.3693594505
H 4.8151204675 -1.742507958 -0.3920109015
H 2.7446637078 0.9292096174 2.7618995844
H 1.0571610943 0.7536417895 3.3140509007
H 1.2292750732 -1.7256462691 2.9871342223
H 2.9251333146 -1.5448464997 2.5251450954
H 2.4124226999 -1.1358668152 4.1699105183
H 1.1566351411 -1.8707384594 -0.9868813388
H -0.2328015236 -1.5032210233 -2.0755878252
H -1.4738474727 0.6863428456 2.050641648
H -0.8749322509 2.2854444136 1.5278574953
H -3.8022292566 1.5812279445 2.0995458773
H -2.7459073469 2.5315028305 3.1614665294
H -3.2126120567 3.1609864284 1.5723524843
H -3.3068024586 -2.4127677652 1.2971054006
H -4.9428013691 -1.6925935583 1.3693206981
H -4.8702318595 -3.5064245534 -0.3258984903
H -5.1119833038 -1.9441079932 -1.1287526395
H -3.5218956659 -2.7059971321 -1.1493291399
*
