! pbe def2-sv(p) def2/J RI DEFGRID1 loosescf d4 GCP(DFT/SV(P)) printgap
%output
    printlevel normal
end
* xyz 0 1
C 1.6542025857 -2.0578133587 -3.1081500663
C 1.5487698291 -0.6716096614 -2.5064846643
O 1.0657218892 -0.7519092438 -1.1488272623
P 2.0920931503 -0.69923324 0.0650949948
S 3.7849433684 -1.6635939186 -0.1170868934
O 1.0958205586 -1.274835689 1.1577510726
C 1.5715643041 -1.7645114363 2.4248106931
C 1.9928657532 -0.6359437352 3.344892609
S 2.347245972 1.3789046543 0.4476732584
C 0.6769067355 2.030522414 0.1487416475
S -0.6153253192 1.2668531303 1.16839131
P -2.0770044571 0.8588427408 -0.3330365417
S -1.5209915466 1.1492687025 -2.1888888012
O -3.2946363272 1.8030245398 -0.0061213492
C -3.7559697441 2.2086675404 1.3048967839
C -4.025026683 1.0407656096 2.228227737
O -2.6739021401 -0.5672076112 0.0336293593
C -2.0206507016 -1.8282099151 -0.188905434
C -2.3103712077 -2.3599460203 -1.5792821596
H 2.3845327106 -2.6481621533 -2.5585305757
H 0.6904090505 -2.5569995055 -3.0658918675
H 1.9706062968 -1.9728031669 -4.1426248613
H 0.8139193659 -0.0594499695 -3.0353475989
H 2.521022189 -0.1683561769 -2.5169664823
H 0.7213928356 -2.3156267621 2.8289585917
H 2.4061231082 -2.4490205062 2.2406297896
H 2.2222210936 -1.040399704 4.3254450878
H 2.8800956964 -0.1420613873 2.9503360694
H 1.1926190922 0.0955126573 3.433323862
H 0.4037225964 1.9007062877 -0.9024564495
H 0.7492049176 3.0843297667 0.4072239101
H -3.0063020105 2.8778489793 1.7347397059
H -4.6669640278 2.7667670412 1.0836583273
H -4.7099283803 0.3388778174 1.7598171402
H -3.095311825 0.525763459 2.4639005848
H -4.4644218556 1.4125567511 3.1488038624
H -0.9459181692 -1.7189087296 -0.0295296972
H -2.4381089304 -2.4848651719 0.5773464282
H -3.3832697169 -2.4302522704 -1.7375536071
H -1.8900366424 -1.6972599188 -2.3327407812
H -1.8661924064 -3.3448858835 -1.6845320863
*
