! pbe def2-sv(p) def2/J RI DEFGRID1 loosescf d4 GCP(DFT/SV(P)) printgap
%output
    printlevel normal
end
* xyz 0 1
C 2.9934799809 -3.8901221502 0.2506968813
C 2.7556701496 -2.4374961671 0.609517894
O 2.3925908119 -1.736899762 -0.596567047
C 2.095407526 -0.4636002915 -0.510662434
O 2.1019964284 0.1824161517 0.5198846705
C 1.7531650151 0.148017725 -1.8552713323
C 0.4491571822 0.9454197662 -1.7546459622
H 0.3679492529 1.6346227562 -2.5977934255
C 0.3859022024 1.7289218493 -0.4599738981
O -0.4637634594 1.5042480999 0.3909092994
O 1.2584908731 2.6826372709 -0.3997907499
C 1.3538533028 3.443306192 0.8261954931
C 2.4074841905 4.5128767832 0.6252868281
S -1.0300361325 -0.1240661139 -1.8516752886
P -1.6566747744 -0.5032860787 0.1338921516
S -0.6010022634 -1.1815849398 1.6535309135
O -2.8906025388 0.4366012423 0.542445238
C -2.9083871788 1.374507228 1.6159720135
O -2.5189472104 -1.7159806434 -0.500728166
C -3.3344675202 -2.5662362706 0.3037467487
H 2.0857026723 -4.3224420665 -0.1595497906
H 3.7867676346 -3.9665947692 -0.4867548834
H 3.2759874423 -4.435996838 1.1444276115
H 3.6520686851 -1.9642914735 1.0218775671
H 1.9415473197 -2.3209055899 1.3331802536
H 1.6619965043 -0.6327565605 -2.6080030801
H 2.5639700025 0.8295287191 -2.1211469484
H 0.3707162004 3.8699245353 1.045336995
H 1.6203255957 2.7439610897 1.6246229338
H 3.3656824576 4.052991042 0.4050978339
H 2.1283763128 5.1625841968 -0.1985017218
H 2.49424635 5.1007664118 1.5327699519
H -2.151091808 1.1142044641 2.357354371
H -3.9039032541 1.3153714157 2.0514299635
H -2.7153667785 2.372647304 1.2277674326
H -3.5488402918 -3.437737556 -0.3099556255
H -4.2558534885 -2.0518160421 0.5758185285
H -2.7932770448 -2.8590788529 1.2067494837
*
