! wb97x-v def2-tzvp def2/J RIJCOSX DEFGRID2 scfconv7 GCP(DFT/TZ) printgap
%output
    printlevel normal
end
* xyz 0 1
C -1.2598264065202018 -0.26172494654404216 7.83344632197093e-05
C 0.013806542809238547 0.573414377824715 -5.7738202033676086e-05
N 1.265000212593879 -0.2102608781304522 4.8172737241458815e-06
H -2.1507222047077423 0.3769843237967491 4.8385848011625275e-05
H -1.303837668142645 -0.9037179646394434 -0.8870612091339259
H -1.3037683782985527 -0.9035339763515714 0.8873536350707775
H 0.02401314909712438 1.2298410527651693 0.8775228150753301
H 0.023962445574132768 1.229623587706136 -0.8777997722039688
H 1.2367187710624867 -0.8337458954590986 0.8034838872747512
H 1.2366425910250831 -0.8340007027099237 -0.8032733293459701
*
