  25
        -32.62667922
 C         -2.4515853468       -0.7321565651       -1.2576774116
 C         -1.9660430417        0.0030923545       -0.0000967893
 C         -2.5840939410        1.4042150907        0.0017450913
 C         -2.4537537174       -0.7361507265        1.2542695683
 C         -0.4451579990        0.0340644814        0.0006880833
 C          0.2678382358       -1.1635301975        0.0006526658
 C          1.6466254414       -1.1896587041        0.0004234081
 C          2.3673280613        0.0000672067        0.0001074220
 C          1.6748646575        1.2016087091        0.0003993557
 C          0.2901254140        1.2116575551        0.0006900414
 O          3.7290705163       -0.0665993183       -0.0005996893
 H         -2.0922670272       -1.7569594489       -1.2799110771
 H         -3.5387456001       -0.7505524272       -1.2836770502
 H         -2.0920796439       -0.2254296908       -2.1507343284
 H         -2.2896953469        1.9620372901       -0.8838912807
 H         -3.6686679741        1.3201671065        0.0012518067
 H         -2.2902052019        1.9594090696        0.8892115562
 H         -3.5409645847       -0.7544717146        1.2782927799
 H         -2.0947386053       -1.7610974500        1.2738772087
 H         -2.0957631024       -0.2323484430        2.1495781023
 H         -0.2571544154       -2.1063620587        0.0006960751
 H          2.1867075956       -2.1237787951        0.0003126474
 H          2.2151204878        2.1378750073        0.0003623378
 H         -0.2044343851        2.1688006870        0.0009033540
 H          4.1100734235        0.8241588080       -0.0010699948
