! wb97x-v def2-tzvp def2/J RIJCOSX DEFGRID2 scfconv7 GCP(DFT/TZ) printgap
%output
    printlevel normal
end
* xyz 0 1
C -2.5589644139413505 0.6277600403756516 0.00019050987158405252
C -1.2229705423481034 -0.05839884127782981 -2.661111195561033e-05
C -1.1512826761090793 -1.454400382476172 -5.790502278920944e-05
C 0.08123551233600483 -2.100652558035584 -9.075530262801952e-05
C 1.2555573917311487 -1.35907415293924 -7.287845241946591e-05
C 1.1848908977832402 0.03464645794660212 -3.42623613907617e-05
C -0.043155029701080316 0.7094147895220213 -4.913845996466976e-05
C -0.11154627741628484 2.209792487264971 2.6711180683799285e-05
O 2.3376608448467753 0.7974458405341182 3.800291869415797e-05
H -2.6773712255767825 1.2713432536864322 0.8797133765006463
H -2.676895554905974 1.2730513121732236 -0.8781268351819281
H -3.3706993437683668 -0.10313181304098938 -0.0007131655834432054
H -2.0698237691411956 -2.03365725221359 -6.464072632239535e-05
H 0.13051556610262044 -3.1852019549377104 -0.00012726765859350823
H 2.2267113569767996 -1.8470353223214688 -7.430432406493897e-05
H -0.6545140607130703 2.576312090363767 -0.8788175270391537
H -0.6533896663322416 2.576280625844439 0.879588450813072
H 0.8785748789674608 2.6642721077613567 -0.0006037423320395646
H 3.098984135216217 0.20131004968620234 -1.4659132716011236e-05
*
