! pbe def2-sv(p) def2/J RI DEFGRID1 loosescf d4 GCP(DFT/SV(P)) printgap
%output
    printlevel normal
end
* xyz 0 1
C 2.9474822539 1.1764099648 -2.6524452552
C 3.0400472554 -0.3188579434 -2.4284803955
O 2.14175406 -0.7734071163 -1.3910274989
P 2.2245064284 -0.3356533034 0.1285987356
S 1.3090170488 1.3281841393 0.641510349
O 3.7917124386 -0.3339987421 0.3846031573
C 4.3811602425 0.2851398471 1.5414383499
C 4.0767407887 -0.479818018 2.8127747289
S 1.5178645019 -2.1027619682 1.062975442
C -0.2363489254 -1.690334041 1.1160323098
S -0.9124871513 -1.4464881477 -0.564905528
P -2.3563905564 0.0370132358 -0.1403993583
S -2.2504940719 0.9512276744 1.5956271904
O -3.6786931171 -0.8108693778 -0.3359157057
C -4.9394730288 -0.408705852 0.2356169706
C -5.4881932348 0.8275419375 -0.4445210336
O -2.3784844712 0.917922448 -1.4645929467
C -1.2989120285 1.7502791526 -1.9183664717
C -1.3220394097 3.112857024 -1.2547313808
H 3.6207270454 1.4634146794 -3.4540238786
H 1.931732011 1.460263481 -2.9178311597
H 3.2276446691 1.7084025963 -1.7438370629
H 4.0556684843 -0.6112125289 -2.1546067437
H 2.7137129838 -0.8788880275 -3.3061451122
H 5.4491696505 0.2900098868 1.3194992885
H 4.0091725249 1.3125765405 1.6120689177
H 4.3357143832 -1.528726968 2.6938747307
H 4.647530241 -0.0557846085 3.6326722334
H 3.0157073437 -0.4068147055 3.0473665087
H -0.390591472 -0.7681253936 1.6847807993
H -0.7335164478 -2.5329015106 1.5900746558
H -5.5827378558 -1.2767259874 0.0873345293
H -4.7934585687 -0.2279231626 1.30546949
H -5.5557870231 0.6675639078 -1.5172265901
H -6.4722136767 1.0542920601 -0.0465202281
H -4.8250326213 1.6712724026 -0.2563890234
H -0.3484165649 1.2428164069 -1.7252617007
H -1.4603376509 1.8282334076 -2.9954168047
H -0.5528652537 3.7389178634 -1.6956354374
H -2.2929599476 3.5809066769 -1.3910815845
H -1.1203286982 3.0170406432 -0.1893383867
*
