! pbe def2-sv(p) def2/J RI DEFGRID1 loosescf d4 GCP(DFT/SV(P)) printgap
%output
    printlevel normal
end
* xyz 0 1
C 3.9567087423 -1.769601969 -2.3584366394
C 4.2368449791 -1.4051936791 -0.9147953891
O 3.7626328761 -0.0920703835 -0.5695469556
P 2.2348621629 0.371842496 -0.5678996424
S 1.4244588677 0.7213537286 -2.3157889645
O 2.3552181961 1.7129898186 0.2465876591
C 3.1826501589 1.9406684938 1.4111015631
C 2.7498498085 1.1096372512 2.6008329537
S 1.2892161799 -1.1495524335 0.594340499
C -0.0269477727 -1.657299709 -0.5563099472
S -1.6619425878 -1.771191203 0.2021333849
P -2.1865419725 0.253450681 0.6121375876
S -0.7837777622 1.6113435005 0.4195221521
O -2.7361219866 0.2205107509 2.0891742632
C -4.0435421962 -0.2551727461 2.496214138
C -4.2613409814 -1.7172252905 2.171510008
O -3.518078503 0.5339643613 -0.2216276378
C -3.5215017433 1.0662814519 -1.5541997433
C -2.8245391615 0.1587479882 -2.5477092778
H 2.884060119 -1.8317993668 -2.5327639508
H 4.3650220049 -1.0138554714 -3.0248858451
H 4.4111551399 -2.7296761216 -2.5804444351
H 5.3095801989 -1.3471877994 -0.7212761138
H 3.7764488315 -2.1279607912 -0.23467042
H 4.2202112665 1.7349805421 1.1398742225
H 3.0494144944 3.0071857859 1.6004016674
H 3.3048490841 1.4272106962 3.4779968303
H 1.6854524845 1.2455868624 2.781656216
H 2.942556666 0.0528968217 2.4215706393
H 0.1867405787 -2.6679452217 -0.8962643053
H -0.0284931083 -0.9519277424 -1.3925039672
H -4.0457391205 -0.0765811688 3.5725375124
H -4.7971474804 0.3695284702 2.0130498836
H -5.2197321227 -2.0292311441 2.5749503173
H -4.2645982368 -1.8684723258 1.0935563163
H -3.4733758268 -2.3262364696 2.6065363447
H -4.5825709947 1.1729536319 -1.785294381
H -3.0432194287 2.0505870696 -1.5369561252
H -3.1873815341 -0.8616989075 -2.4533872114
H -3.0135668121 0.5164336393 -3.5548300502
H -1.7475387309 0.1769460369 -2.3803890082
*
