  18
  -29.3408880800000       0.166710168918113      !gc
 C         -3.3745364979        0.6177727447        0.0007198235
 O         -1.9540520839        0.7607445040        0.0005957074
 C         -1.2316239002       -0.3593416725       -0.0003496249
 O         -1.7407046758       -1.4665318218       -0.0010555141
 C          0.2239622002       -0.1134666166       -0.0002138118
 C          1.0842194163       -1.2107493931        0.0004469732
 C          2.4521891992       -1.0172043087        0.0007111156
 C          2.9683364441        0.2697969538        0.0002552879
 C          2.1161764709        1.3639832560       -0.0004796063
 C          0.7463860870        1.1790995107       -0.0006965234
 H         -3.7698468759        1.6285892819        0.0078977650
 H         -3.6943213840        0.0641227567        0.8846404442
 H         -3.6956077442        0.0764114045       -0.8903117664
 H          0.6552581181       -2.2015921157        0.0007839142
 H          3.1154027331       -1.8679666600        0.0012834098
 H          4.0367970459        0.4202213156        0.0004655718
 H          2.5217091620        2.3636350782       -0.0008796447
 H          0.0743256442        2.0222433152       -0.0012716022
  18
  -29.3408880200000       0.166699584544057      !mtd5
 C         -3.3745579950        0.6177544784        0.0011192199
 O         -1.9540734702        0.7607332388        0.0003930290
 C         -1.2316292270       -0.3593246333       -0.0006081228
 O         -1.7406545574       -1.4665396954       -0.0011802106
 C          0.2239556293       -0.1134357836       -0.0001743500
 C          1.0841957292       -1.2107331309        0.0005720777
 C          2.4521630529       -1.0172127888        0.0007913975
 C          2.9683486139        0.2697749312        0.0003383937
 C          2.1162055298        1.3639700431       -0.0005372900
 C          0.7463916759        1.1791245162       -0.0007596487
 H         -3.6935164063        0.0591821900        0.8822146096
 H         -3.6963959301        0.0813783054       -0.8926089360
 H         -3.7698567380        1.6284931119        0.0142017332
 H          0.6552020663       -2.2015529565        0.0007956671
 H          3.1153556106       -1.8679639840        0.0012171330
 H          4.0367948346        0.4201653294        0.0005418879
 H          2.5217681777        2.3636324241       -0.0011067068
 H          0.0743428914        2.0223101275       -0.0015981317
  18
  -29.3408879900000       0.166694292608405      !mtd6
 C         -3.3124154552       -0.8928345436        0.0054910092
 O         -1.8849763151       -0.9188499329        0.0053753209
 C         -1.2569659651        0.2567659957       -0.0023924585
 O         -1.8553099041        1.3183647172       -0.0092814249
 C          0.2138933313        0.1313734054       -0.0010822136
 C          0.8408774669       -1.1138108932        0.0054149244
 C          2.2212483039       -1.1853492855        0.0065459422
 C          2.9804817234       -0.0247709993        0.0013027048
 C          2.3601993601        1.2153982873       -0.0052436063
 C          0.9809580443        1.2957192113       -0.0064389924
 H         -3.6235335588       -1.9327438810        0.0071084743
 H         -3.6768216839       -0.3746350843       -0.8827253177
 H         -3.6765118795       -0.3721292916        0.8923685261
 H          0.2404764562       -2.0093955384        0.0094364307
 H          2.7076742090       -2.1482275993        0.0115522369
 H          4.0576963696       -0.0867527090        0.0023330905
 H          2.9511774235        2.1178266243       -0.0094007724
 H          0.4718741921        2.2478687906       -0.0115358184
  18
  -29.3408878400000       0.166667835452459      !mtd7
 C         -3.3124954642       -0.8925316222       -0.0055488016
 O         -1.8851155733       -0.9189061516       -0.0036988045
 C         -1.2568576116        0.2567384697        0.0025190277
 O         -1.8552576638        1.3182763764        0.0073372059
 C          0.2139073139        0.1312338068        0.0018487149
 C          0.8409540546       -1.1139100754       -0.0018163090
 C          2.2213550097       -1.1853308372       -0.0036898747
 C          2.9805022887       -0.0247170294       -0.0021904174
 C          2.3601261986        1.2154331450        0.0018244531
 C          0.9809202742        1.2956730982        0.0040177190
 H         -3.6780405990       -0.3857677077        0.8886868823
 H         -3.6238899913       -1.9321803310       -0.0207906593
 H         -3.6752181026       -0.3603729222       -0.8861029531
 H          0.2406570918       -2.0095743118       -0.0033069134
 H          2.7078226491       -2.1482010946       -0.0067287765
 H          4.0577247456       -0.0865527715       -0.0038178115
 H          2.9511135502        2.1178758699        0.0034277602
 H          0.4716316995        2.2477141173        0.0070499816
  18
  -29.3408878100000       0.166662544525319      !gc
 C         -3.3741183409        0.6188092201        0.0021413229
 O         -1.9535736706        0.7606106691        0.0024484291
 C         -1.2316416001       -0.3597495356       -0.0007196215
 O         -1.7410714090       -1.4667970139       -0.0039883440
 C          0.2239460014       -0.1140489957       -0.0006064454
 C          1.0845232864       -1.2110607127        0.0015884504
 C          2.4524636382       -1.0169450691        0.0024419896
 C          2.9681667772        0.2702335768        0.0007394362
 C          2.1156231563        1.3641217195       -0.0017596600
 C          0.7459502059        1.1786853521       -0.0023984005
 H         -3.6961117095        0.0843107271       -0.8927081000
 H         -3.7684618718        1.6299356844        0.0168380062
 H         -3.6940745509        0.0589865498        0.8821179922
 H          0.6561036249       -2.2021327038        0.0030103161
 H          3.1160234092       -1.8674366653        0.0044823862
 H          4.0365672560        0.4210189611        0.0012688626
 H          2.5207380649        2.3639465230       -0.0032375160
 H          0.0734988886        2.0215213756       -0.0043335555
  18
  -29.3408872600000       0.166565573951647      !md2
 C         -3.3124246662       -0.8926471514       -0.0195585207
 O         -1.8849801605       -0.9185997811       -0.0201551403
 C         -1.2569754810        0.2566710779        0.0087519645
 O         -1.8552557306        1.3180075362        0.0346171256
 C          0.2138761523        0.1313301369        0.0040343193
 C          0.8408928413       -1.1137352866       -0.0146706069
 C          2.2212452332       -1.1852383519       -0.0190574701
 C          2.9804686653       -0.0247121591       -0.0052113513
 C          2.3601919349        1.2153172695        0.0136413759
 C          0.9809443959        1.2955909774        0.0185811032
 H         -3.6764114856       -0.3297867144       -0.8802742190
 H         -3.6768875935       -0.4179529341        0.8925329736
 H         -3.6235381816       -1.9312156931       -0.0708852835
 H          0.2404310490       -2.0092256866       -0.0251894426
 H          2.7076675894       -2.1480216700       -0.0334747822
 H          4.0576851853       -0.0866591183       -0.0091806386
 H          2.9511288732        2.1177193984        0.0244917151
 H          0.4718451889        2.2476357892        0.0331588865
