! pbe def2-sv(p) def2/J RI DEFGRID1 loosescf d4 GCP(DFT/SV(P)) printgap
%output
    printlevel normal
end
* xyz 0 1
C 4.3504724543 2.5239855408 -1.3869153959
C 3.031177431 1.9675560261 -0.8923662692
O 3.3162136485 0.8101367043 -0.0813882258
P 2.1915437149 0.1563943949 0.8319230478
S 1.2356380903 1.4038986431 1.9925225663
O 2.9865971344 -0.9183377483 1.6607991233
C 3.9774443564 -1.8262492183 1.106596716
C 3.397406718 -3.2150173808 0.926878225
S 1.0440966437 -0.9104733591 -0.6274797576
C -0.0964398608 -1.7414682887 0.5107360027
S -1.4253229417 -0.6815722416 1.1389610556
P -2.1992369601 -0.1059857476 -0.7656197463
S -2.1020849847 -1.4509116585 -2.1796874413
O -1.4125529568 1.1876849665 -1.2114035244
C -1.3560380901 2.4086159044 -0.4367914595
C -2.3585998395 3.4172516439 -0.9564371883
O -3.6223522765 0.4914975775 -0.3893337257
C -4.619386351 -0.1709310585 0.4118847212
C -4.9384042934 -1.567171817 -0.0788458648
H 4.1599897745 3.4005980398 -1.9971916562
H 4.9755559435 2.8020298425 -0.5432056448
H 4.8700157175 1.7784225311 -1.981629421
H 2.390062141 1.6564156402 -1.7226724295
H 2.4936215678 2.6958723354 -0.2756620785
H 4.344543069 -1.4202748667 0.1633840033
H 4.7796648112 -1.8257655561 1.8460495298
H 2.635288444 -3.2194924265 0.1512377676
H 4.1947874045 -3.8920094987 0.6365973865
H 2.9605967187 -3.5626933948 1.8593352529
H 0.4437978319 -2.1051114292 1.3825034216
H -0.5360068198 -2.558862959 -0.0601390184
H -1.5269771848 2.17747156 0.6188835138
H -0.3311436537 2.7671955707 -0.5570869838
H -2.2503097371 4.3419568041 -0.3984817923
H -2.1792238926 3.607619975 -2.0109891395
H -3.3699424604 3.0386617429 -0.8355195982
H -4.2628073276 -0.1952806821 1.4455447275
H -5.4876059985 0.4861433808 0.3353608461
H -5.2212290836 -1.5450737768 -1.1286338869
H -4.0668980973 -2.2114961473 0.0275793474
H -5.7554269756 -1.9763286919 0.5066227463
*
