! r2scan-3c def2/J RI DEFGRID2 scfconv6 printgap
%output
    printlevel normal
end
%cpcm
    smd true
    smdsolvent "water"
end
* xyz 0 1
C 5.814528935 -1.4998035341 -0.4029558187
C 4.8426078035 -1.0377742346 -1.4723383611
O 3.5385199434 -1.5689965177 -1.1629494675
C 2.4735928399 -0.8757277414 -1.5005738471
O 2.4961774975 0.190841178 -2.0749545157
C 1.1984011436 -1.5924459863 -1.0914262197
C 0.2006725759 -0.574061215 -0.5603793206
H 0.1196041912 0.2627611714 -1.2687030738
C 0.6004624319 0.0286311447 0.7707054574
O -0.2226795633 0.3467650883 1.605794196
O 1.8934724419 0.1659714676 0.8958339878
C 2.3967685972 0.8473632821 2.0667023792
C 2.4007076264 2.350533924 1.8475194472
S -1.4606129423 -1.2932289623 -0.3608675763
P -2.4917686145 0.4689548781 0.2404454433
S -1.74549061 2.188839838 -0.3255435106
O -3.9309827159 0.1851582623 -0.4222485689
C -4.1211786165 0.2202283295 -1.8385302419
O -2.9095822358 0.3840257415 1.7598122055
C -3.572056713 -0.7701318934 2.3132112681
H 6.8082964705 -1.1351696169 -0.6406143183
H 5.5168316862 -1.1160355789 0.5684618646
H 5.8305134416 -2.5845991055 -0.3613140161
H 5.1277196672 -1.4172660068 -2.4575927928
H 4.7700163554 0.0527417394 -1.5203279603
H 1.4304148807 -2.3554503783 -0.3502980914
H 0.7761881415 -2.0726190816 -1.9763337183
H 1.7696160135 0.578900791 2.9209740835
H 3.4065276986 0.4571379242 2.1926713266
H 2.8306755707 2.8407142051 2.7145073906
H 2.9830056978 2.6001023455 0.9644164493
H 1.3834808357 2.7116723371 1.7045837108
H -3.6669941187 1.120807017 -2.2556399923
H -5.1973740392 0.2335394473 -1.9902903585
H -3.6787831303 -0.6659022992 -2.2937061866
H -3.6353468865 -0.5724045413 3.3800485802
H -2.9814618404 -1.666285467 2.1219370985
H -4.5630894403 -0.8730136103 1.8748588343
*
