! wb97x-v def2-tzvp def2/J RIJCOSX DEFGRID2 scfconv7 GCP(DFT/TZ) printgap
%output
    printlevel normal
end
%cpcm
    smd true
    smdsolvent "water"
end
* xyz 0 1
C 0.6574394216671772 7.23574835834334e-05 -0.390951172718275
C -0.6576501722534471 0.0001504049807117634 0.3908576245421936
Cl -1.6154407234543502 1.4668447432549292 -0.03131488352621106
Cl -1.615508162137651 -1.4665233185367559 -0.03119339993587631
Cl 1.6153589449499373 1.466704222816807 0.0311346076752078
Cl 1.6151670497574304 -1.4666749247755648 0.03115204996002673
H 0.49699210031375474 7.064479529680886e-05 -1.4706701671649143
H -0.4972036652957455 0.00018515859571726522 1.4705767375523628
*
