! pbe def2-sv(p) def2/J RI DEFGRID1 loosescf d4 GCP(DFT/SV(P)) printgap
%output
    printlevel normal
end
* xyz 0 1
C 2.9925541719 2.3594988205 -1.6375641853
C 1.741716463 1.6550302929 -1.1513012956
O 2.0674909109 0.2996083105 -0.8049238692
P 1.9036883336 -0.3630853455 0.6299740764
S 1.5326524755 0.9012394507 2.0834519903
O 3.219817108 -1.2457872486 0.7334260477
C 4.5432478413 -0.7573926763 0.4354292611
C 5.0438319215 0.2141997428 1.4857205664
S 0.6238926891 -2.0351706035 0.4980456517
C -0.7122344333 -1.5427759906 1.6346507645
S -2.3291621496 -1.3693220008 0.8352659283
P -1.8304771231 0.0331768825 -0.6960904294
S -0.8644178764 -0.5724792581 -2.2871945598
O -1.0541270422 1.1727118294 0.076031687
C -1.6924451628 2.0071453735 1.0827109807
C -2.1143460349 3.3307015888 0.4814640107
O -3.2336720552 0.7059859541 -1.0138843396
C -4.1369667597 0.1649004637 -1.993875762
C -4.6722371817 -1.1915623462 -1.585118841
H 2.7290846614 3.3607667989 -1.9623619845
H 3.7245306632 2.4259487933 -0.8357298417
H 3.4253578821 1.8150716712 -2.472389917
H 0.9812077012 1.5986768335 -1.9335673972
H 1.3225995607 2.1546065677 -0.2718002193
H 5.1496244971 -1.6644588915 0.4109324072
H 4.5303939468 -0.29686661 -0.5559377193
H 5.0064659637 -0.2449631426 2.4704326653
H 6.0675261955 0.4939342698 1.2576563946
H 4.4249096368 1.1101706758 1.5021103218
H -0.424473719 -0.6074412716 2.1235502056
H -0.8364605109 -2.339463842 2.3640935674
H -2.5477212585 1.4690111764 1.4982285953
H -0.9282567201 2.1444813549 1.8518042679
H -1.256648785 3.8323604378 0.0417327133
H -2.8644917574 3.173322651 -0.2886879248
H -2.5295025149 3.9548569803 1.2665028995
H -4.9308088823 0.9103114866 -2.0565527746
H -3.6088032253 0.0989869016 -2.9501815358
H -5.4297611841 -1.5087945657 -2.2945003335
H -3.8644839537 -1.9228693441 -1.581589667
H -5.1044771836 -1.1451038094 -0.5887727159
*
