! pbe def2-sv(p) def2/J RI DEFGRID1 loosescf d4 GCP(DFT/SV(P)) printgap
%output
    printlevel normal
end
* xyz 0 1
C 4.2562508705 0.51178688 -2.2656840301
C 4.4114114792 -0.2844609693 -0.9850996435
O 3.6055788104 0.2947072974 0.0741528151
P 2.258808827 -0.3178894836 0.6081514876
S 1.6147125483 0.7131961174 2.138422629
O 2.6528599964 -1.8383649143 0.8543577875
C 1.7099140512 -2.8426856814 1.2783679997
C 1.5953657304 -2.8888085379 2.7896456647
S 0.9498002831 -0.506937199 -1.0768788645
C 0.5319747063 1.2447483708 -1.2763558921
S -0.7638768691 1.8360780446 -0.1490415022
P -2.1971552082 0.3182256334 -0.5957534765
S -2.2698363588 -0.3061266774 -2.4448800943
O -3.5507202822 0.9204652969 -0.0166189651
C -4.4371038564 1.7331319268 -0.8078025212
C -3.8165797633 3.0614609669 -1.1881446424
O -1.9039134424 -0.8512961907 0.4232790425
C -1.9483127527 -0.6917773558 1.8674122766
C -2.2543266499 -2.0467251298 2.4696516031
H 4.9650668338 0.1403842896 -2.9990568746
H 3.2505002345 0.4069347749 -2.6657335565
H 4.4570785218 1.5631775005 -2.0781274872
H 5.4337226783 -0.2320243332 -0.6077835876
H 4.1236002187 -1.3275202124 -1.1252135216
H 0.7415676699 -2.644726346 0.808835385
H 2.116678465 -3.7760407167 0.88362195
H 1.1958929295 -1.9515795606 3.1702540434
H 0.9352207623 -3.7015746531 3.075460574
H 2.5751546743 -3.0515578174 3.2301161071
H 0.1827408927 1.3484768107 -2.3026706195
H 1.4080550167 1.8622587685 -1.0878028338
H -4.7135773385 1.1675950135 -1.7028747016
H -5.3091485952 1.8639548429 -0.1654045157
H -2.9949032392 2.9017658577 -1.8846058296
H -4.5670325168 3.682658344 -1.6663343795
H -3.4350237766 3.5691445791 -0.3055373993
H -0.9738099656 -0.3137404817 2.191906075
H -2.7170647693 0.04058696 2.1184543571
H -2.2403108035 -1.9622160866 3.5514257082
H -3.2335425262 -2.387437429 2.1450094939
H -1.5095656624 -2.7726753994 2.1561140166
*
