! pbe def2-sv(p) def2/J RI DEFGRID1 loosescf d4 GCP(DFT/SV(P)) printgap
%output
    printlevel normal
end
* xyz 0 1
C 1.351131528 1.4872336882 2.8347409193
C 2.8265238955 1.2072288407 2.6331500952
O 3.1799570435 1.1470223625 1.2385994106
P 2.8581955494 -0.1125298102 0.3355592291
S 2.9375339843 -1.8566276415 1.2376896681
O 3.9802968419 0.1711621257 -0.7456739077
C 4.4668872377 -0.84839596 -1.6358282861
C 3.4112194679 -1.3206546663 -2.6161577045
S 1.0391065882 0.3420753262 -0.6882856119
C -0.0067905999 -1.0197664639 -0.0895442705
S -1.3622946989 -0.4511629087 0.9502874916
P -2.6461681306 0.1404066143 -0.6509846122
S -2.6205065864 -1.0855931666 -2.1798033368
O -2.2417695183 1.5739178335 -1.1658250825
C -2.4339602748 2.8349789185 -0.4807843011
C -1.3996365667 3.056421364 0.6039752648
O -4.0260940956 0.4339939442 0.0769418534
C -4.6644190959 -0.4413161526 1.0262758593
C -4.8978143999 -1.8315472426 0.4739216415
H 1.1552804362 1.6254601759 3.8931361322
H 1.0629685811 2.3856288567 2.2958767241
H 0.7531037562 0.6496374124 2.4763952955
H 3.1110708593 0.2622598822 3.1077750438
H 3.4446842391 2.0165316684 3.0243634766
H 5.301759672 -0.3681262962 -2.1481428332
H 4.833908792 -1.6869433448 -1.0352337937
H 3.8683869091 -1.9858185646 -3.341904378
H 2.6255688686 -1.863452616 -2.0911788978
H 2.9674437518 -0.4738549689 -3.1343489667
H 0.6053987114 -1.7027779693 0.5044702972
H -0.4342126139 -1.523867106 -0.9587502554
H -2.332889624 3.5694312264 -1.2815820183
H -3.4473725051 2.8622392322 -0.0771409979
H -1.486897148 4.0740232786 0.9720166065
H -1.5538471159 2.3660180862 1.4299332366
H -0.4020704889 2.9068911361 0.1963670976
H -4.0431418389 -0.4815356288 1.9250082303
H -5.6066426203 0.0637512805 1.2462749198
H -5.4570218634 -1.7815745451 -0.4574598912
H -3.9461593098 -2.3226984191 0.2757159347
H -5.4546420991 -2.4185875458 1.1970837633
*
