! pbe def2-sv(p) def2/J RI DEFGRID1 loosescf d4 GCP(DFT/SV(P)) printgap
%output
    printlevel normal
end
* xyz 0 1
C 4.3699769495 -0.116800767 -2.3012336265
C 4.5147642392 0.6237437128 -0.9874846128
O 3.8085566931 -0.0259513524 0.082843716
P 2.2239359414 -0.1356080442 0.1251268171
S 1.2780923922 1.4940288119 -0.4528633763
O 1.9614623075 -0.5813109243 1.6211003218
C 1.8122484207 0.3619474218 2.7001457022
C 3.1478666678 0.9184471044 3.1480691871
S 1.8099800023 -1.9564086963 -0.8403830562
C 0.0542019058 -1.7010682167 -1.2041486323
S -0.9523658525 -1.4043604658 0.2809185961
P -2.0673900977 0.3131894204 -0.3546062283
S -1.8473913097 0.8452452828 -2.2213447998
O -1.7885337362 1.4631413268 0.6793074848
C -1.9521855718 1.3116930846 2.1124030191
C -3.3261002127 1.7674198017 2.5580054802
O -3.5524665023 -0.1141707722 0.0305506327
C -4.24803841 -1.1293354957 -0.7191180274
C -5.7136180602 -1.0666946729 -0.3392028286
H 4.6384017528 -1.1629428456 -2.1773028926
H 3.3393298836 -0.0579051117 -2.6501436767
H 5.0172624119 0.3381269895 -3.044204737
H 4.1356855478 1.6467549918 -1.0801754933
H 5.5504297528 0.6392877174 -0.6452878918
H 1.1497853038 1.1675764009 2.3648313054
H 1.328120454 -0.2150338817 3.4894938882
H 3.580886229 1.5312909487 2.3594939783
H 3.002774538 1.5298243409 4.03333562
H 3.8320098339 0.1058352684 3.3762150712
H -0.2828072602 -2.6213486828 -1.6747930512
H -0.0737264237 -0.8474255115 -1.8765737717
H -1.7706409223 0.2664654193 2.379907385
H -1.1705212942 1.9446742365 2.5378930904
H -4.0944407893 1.1327777952 2.1260971033
H -3.3799867739 1.7136550965 3.6408955982
H -3.4974140411 2.7919959608 2.2394302084
H -4.1002986385 -0.9347945015 -1.7865250891
H -3.8105736788 -2.09944756 -0.4665252201
H -6.1185461726 -0.0871745625 -0.5774578965
H -6.2570584578 -1.8232702604 -0.895385439
H -5.8315335826 -1.2492338223 0.7249652596
*
