! pbe def2-sv(p) def2/J RI DEFGRID1 loosescf d4 GCP(DFT/SV(P)) printgap
%output
    printlevel normal
end
* xyz 0 1
C 4.1010349583 -1.3497011967 -2.5775698892
C 4.1826681939 0.1061651166 -2.1675283536
O 3.5950795905 0.3500234404 -0.8754374149
P 2.0422024028 0.1756994912 -0.5838306222
S 0.8426103182 0.7750071561 -2.0062709456
O 1.8714567005 0.9943440166 0.7517105672
C 2.7188475427 0.8207988664 1.9191780261
C 1.9350735309 0.1737418129 3.0431769643
S 1.8486584573 -1.8712559892 -0.0581803474
C 0.0502863241 -1.9798979323 -0.2099510395
S -0.8466618586 -1.3715170182 1.2590747149
P -1.8500538977 0.3749707754 0.621020589
S -1.0714032919 2.1660435142 0.7472254617
O -3.1231242842 0.3695121995 1.5694054881
C -3.8777654552 -0.7704053335 2.0424922656
C -4.5293106745 -1.5518967618 0.9210401228
O -2.2867734446 -0.088819341 -0.8466064614
C -2.6346671439 0.8620605738 -1.8648310925
C -4.0066084364 1.4538482949 -1.6205884688
H 4.493009244 -1.9887632832 -1.7903848587
H 3.0663979522 -1.6251114389 -2.7741015769
H 4.6809842445 -1.4955821697 -3.4832219813
H 3.6765048504 0.7422408423 -2.9000360871
H 5.2158429871 0.4339102269 -2.043364067
H 3.5919754315 0.2268751503 1.6416682327
H 3.0284639385 1.8326944725 2.1848292613
H 1.0157252328 0.7292735871 3.2170663976
H 1.6807844703 -0.8555587169 2.8001701792
H 2.5360512246 0.187758491 3.9466668903
H -0.1846934317 -3.0368752543 -0.2996960376
H -0.2725921383 -1.4178140036 -1.086940892
H -3.2095484087 -1.4071270546 2.6267652701
H -4.6217631871 -0.3176863558 2.7002819484
H -3.772925164 -1.9713519315 0.2615278189
H -5.1134661448 -2.3605158864 1.349314164
H -5.184624617 -0.9063530664 0.3422858928
H -1.8716455922 1.6472055431 -1.8892263888
H -2.5900833975 0.2908643814 -2.7933736414
H -4.0127569997 1.9747207676 -0.6631312716
H -4.2363073093 2.1624223826 -2.4099761944
H -4.7599548117 0.6709220511 -1.6077707021
*
