! pbe def2-sv(p) def2/J RI DEFGRID1 loosescf d4 GCP(DFT/SV(P)) printgap
%output
    printlevel normal
end
* xyz 0 1
C 4.8927833135 1.354371 -0.0397640569
C 3.5677422706 1.4705671041 -0.7625608598
O 2.9135192443 0.1894767277 -0.8498609318
P 2.2308471355 -0.4890082608 0.4091283699
S 1.6595429714 0.7756688211 1.8013994181
O 3.3457728636 -1.5273058861 0.8586875438
C 3.1084992823 -2.758070126 1.5656166019
C 2.1534336511 -2.5960362435 2.7298983156
S 0.7771934852 -1.7159164018 -0.5465717427
C 0.1863869566 -0.5383715708 -1.7950661113
S -0.4288784653 1.0135786858 -1.1063037748
P -2.4773843635 0.4540116755 -0.7887196413
S -3.071791844 -1.1500310936 -1.7323184192
O -3.2928085617 1.7064912467 -1.2766022334
C -3.0627243148 3.054048234 -0.7924362471
C -4.0748459547 3.4196100359 0.2735855967
O -2.690556052 0.5295764469 0.786796866
C -1.9855718297 -0.2273705325 1.7832175123
C -2.2477014312 -1.7162398549 1.6846498967
H 5.5262755172 0.620863213 -0.5310753056
H 5.3891327369 2.3195433778 -0.0340270863
H 4.7197655424 1.0354059293 0.9876765288
H 3.6936304881 1.7782854326 -1.8012920744
H 2.9016605968 2.1698735973 -0.2463339845
H 2.7206364189 -3.48753212 0.8488930293
H 4.1023973651 -3.0597744684 1.9010613815
H 2.0667699045 -3.5391928234 3.2596525446
H 2.5115585774 -1.8294146976 3.4132396877
H 1.1694306236 -2.3031285498 2.3632399356
H -0.6269830557 -1.0459820009 -2.3194258707
H 1.0032512319 -0.2903806229 -2.4669488638
H -2.0398835941 3.1277702075 -0.4124349079
H -3.1710054207 3.6838930975 -1.6772089438
H -5.0821552237 3.305466983 -0.1171625948
H -3.9602830017 2.7743342222 1.1403412979
H -3.9190885742 4.4517269799 0.5716908457
H -0.916166915 -0.0052442265 1.7047994807
H -2.3605177267 0.1774254384 2.7251462346
H -3.3178616177 -1.9078768691 1.6753639593
H -1.8152862595 -2.1264889243 0.7734918733
H -1.801658658 -2.2127880745 2.5407337863
*
