! pbe def2-sv(p) def2/J RI DEFGRID1 loosescf d4 GCP(DFT/SV(P)) printgap
%output
    printlevel normal
end
* xyz 0 1
C 4.3419444977 -0.778734401 -2.9419380856
C 4.4195629423 -0.095516919 -1.5906351795
O 3.4664304614 -0.6749524913 -0.6775268311
P 2.0809710062 0.0629760187 -0.3481126389
S 1.0961538313 0.6011697699 -1.952320283
O 2.4488564939 1.3314263535 0.5257261369
C 2.7633705477 1.3411687775 1.9373238146
C 3.9327261849 0.4448874998 2.2861766055
S 1.2883731032 -1.4479839249 0.8797378022
C -0.0135013482 -2.0601929598 -0.235967413
S -1.6912813665 -1.8755735251 0.4225053704
P -1.9573886576 0.2342878894 0.2879811571
S -0.6903478348 1.3776638923 1.2461104511
O -3.4562864075 0.3725788338 0.7901537481
C -3.7994468216 0.2037870825 2.1821134255
C -5.1746171206 0.801677624 2.3983158196
O -2.0468277835 0.5899909428 -1.2381700967
C -2.9385658624 -0.0575412594 -2.1809042129
C -4.2239896056 0.7287172572 -2.3305912236
H 5.1149980654 -0.3801650416 -3.591084568
H 4.4841660862 -1.8488839858 -2.8226312106
H 3.3690477554 -0.6004198536 -3.3949030365
H 4.2277105935 0.9789777196 -1.6809971815
H 5.3928677554 -0.2546144083 -1.1220971448
H 2.9824953382 2.3919713088 2.1337267638
H 1.8606149087 1.0536063452 2.4831620695
H 4.1428882339 0.5421222702 3.3466710548
H 3.6928296566 -0.5948320148 2.0679947305
H 4.8137438416 0.7335048963 1.7180579822
H 0.1316845496 -3.1297672945 -0.3621046031
H 0.068199925 -1.5282533649 -1.1881117186
H -3.7870080979 -0.8659225656 2.4060436757
H -3.0408984688 0.7079100068 2.7897630786
H -5.9034966991 0.2964938132 1.771333542
H -5.4531082501 0.6823601539 3.4400803152
H -5.165434957 1.8590841136 2.1487322513
H -2.3684565059 -0.0782075698 -3.1120413456
H -3.136012386 -1.0775224876 -1.8390984825
H -4.0023619974 1.7506686134 -2.6260132315
H -4.8379024599 0.2596400748 -3.0930811396
H -4.7667549432 0.7451639369 -1.3893691173
*
