! pbe def2-sv(p) def2/J RI DEFGRID1 loosescf d4 GCP(DFT/SV(P)) printgap
%output
    printlevel normal
end
* xyz 0 1
C 2.2955259302 2.9824617527 -1.1923744288
C 1.6497992633 1.6386025914 -1.4583530534
O 1.3871503687 0.9522483795 -0.2113589665
P 2.3480689367 -0.221412349 0.2594158171
S 4.2737557472 0.1049978969 0.1323368415
O 1.8420214164 -1.4270076662 -0.6606533364
C 2.6437504331 -2.5974989585 -0.8819967064
C 2.7144292625 -3.4736445836 0.3528195954
S 1.5570562834 -0.5725660028 2.1765559892
C -0.1706289333 -0.9191160073 1.7383891632
S -1.191801803 0.5919108872 1.6802514622
P -2.2331427836 0.1536422879 -0.0977354176
S -1.2414273695 -0.5600898821 -1.6399717586
O -3.0842985915 1.461585202 -0.395490032
C -2.5794674326 2.5517525574 -1.1840013047
C -1.6224095182 3.4199132639 -0.3920914576
O -3.3146317377 -0.8367848477 0.5023417135
C -4.1056537719 -1.7159356702 -0.3239976871
C -5.1101872143 -0.9526982873 -1.1611421094
H 2.4117160309 3.5136225607 -2.131500512
H 1.6799484555 3.5701993555 -0.5170561143
H 3.2746280506 2.8399064527 -0.7397259689
H 2.2897581105 1.0106469515 -2.0845476544
H 0.6751575058 1.7388267511 -1.9402815765
H 2.1492524224 -3.1022614823 -1.7133802681
H 3.646791648 -2.277115062 -1.1822413717
H 1.7163675064 -3.7512365057 0.6822836942
H 3.2782923558 -4.3717070401 0.1220808168
H 3.216715338 -2.9374381413 1.1577779351
H -0.5530252452 -1.5686715161 2.5207970365
H -0.2013076481 -1.399455835 0.7591550257
H -2.0923706304 2.1403788649 -2.0752195484
H -3.4724537147 3.1061386076 -1.4768881971
H -0.7412156831 2.8468193795 -0.1084378031
H -1.3172229707 4.2663021619 -0.9994310735
H -2.1047196991 3.7794250223 0.5130574673
H -3.4292292862 -2.2922187975 -0.9636939292
H -4.5944021116 -2.3767472508 0.3929787113
H -5.7082879501 -0.3025343589 -0.5283055625
H -4.591531649 -0.3443550157 -1.9006196049
H -5.7588055021 -1.6554796605 -1.6747907887
*
