! pbe def2-sv(p) def2/J RI DEFGRID1 loosescf d4 GCP(DFT/SV(P)) printgap
%output
    printlevel normal
end
* xyz 0 1
C 5.2385869425 0.4152858633 1.6846407843
C 4.2802380544 -0.7557242469 1.6102292802
O 3.8916716273 -1.0179330868 0.2377379914
P 2.5584428103 -0.4982555278 -0.4138003549
S 2.4037639849 -1.1646489809 -2.2453299242
O 2.6886761676 1.0778080651 -0.1853195421
C 1.6452446925 2.0393543547 -0.3957030869
C 1.4411137347 2.3533367741 -1.8642783809
S 1.0209083691 -1.0879815555 0.9491346962
C -0.1943455411 -1.6885772412 -0.2472342175
S -0.9489321971 -0.3808949175 -1.2657437209
P -2.3714009965 0.3472776675 0.113439342
S -3.5727734656 1.7332843708 -0.5756079662
O -1.3817671313 0.7223628964 1.2938965767
C -1.8093315538 1.0104009443 2.6444430168
C -2.2228671321 2.4602984885 2.7964872001
O -3.1202915549 -0.9255604488 0.7283431834
C -4.3648802393 -1.3949977684 0.1866607763
C -4.1727799301 -2.0757918012 -1.1536267383
H 4.7535482174 1.3244141956 1.3399775238
H 5.5605239385 0.5463179715 2.7130670068
H 6.1056855125 0.2247011501 1.0582964947
H 3.3810916636 -0.5755629221 2.2058425439
H 4.7578588338 -1.6808829408 1.9374694419
H 0.718462565 1.670326766 0.0566735119
H 1.9847739134 2.9216321509 0.1508948551
H 2.3710639135 2.6998210154 -2.3071015433
H 1.1091547794 1.4669889007 -2.4021185293
H 0.6831242735 3.1244492549 -1.9634146505
H -0.9648773019 -2.1982848728 0.3252248066
H 0.2967761542 -2.35586999 -0.9541039896
H -2.6262316692 0.3355941126 2.9084553517
H -0.9305898724 0.7771206644 3.2488882079
H -3.082241677 2.6776078842 2.1652946794
H -2.4863150459 2.6501154628 3.8321980886
H -1.407079427 3.1171917623 2.5073843592
H -4.7423371536 -2.0858574034 0.9418586233
H -5.0430127739 -0.5413835192 0.0869139019
H -5.1260298939 -2.4612382034 -1.5007064941
H -3.7979301097 -1.3574739337 -1.8826540869
H -3.4639040513 -2.8959270472 -1.0716975245
*
