! pbe def2-sv(p) def2/J RI DEFGRID1 loosescf d4 GCP(DFT/SV(P)) printgap
%output
    printlevel normal
end
* xyz 0 1
C 5.1894200041 -0.8419123013 -2.3642301724
C 3.7401306691 -1.1173913985 -2.0171763115
O 3.5042974407 -0.6427187509 -0.6766137171
P 2.0557972616 -0.2571694364 -0.1538089363
S 1.0339637511 0.8384271156 -1.4242094826
O 2.3555682142 0.3672328433 1.2658812674
C 2.6125432605 1.7714979899 1.4659547952
C 3.8705641177 2.2220882656 0.7561931894
S 1.3126248761 -2.1436348211 0.4220540965
C -0.3212530837 -1.7006655811 1.0726058631
S -1.5327214619 -1.3205965853 -0.2321972808
P -2.2387358407 0.5290666057 0.5552569243
S -0.944623754 1.6136806991 1.5433195658
O -3.4347111051 0.1569346959 1.5104851604
C -4.5745134422 -0.6424627644 1.09682526
C -4.5186415006 -2.0077441456 1.7525093562
O -3.0065296893 1.2240234291 -0.6447109449
C -2.3916593344 1.832812459 -1.7968684962
C -2.3674582838 0.8725118784 -2.9688717895
H 5.840404417 -1.3288343412 -1.6440647453
H 5.3963907786 -1.2286922845 -3.3565704982
H 5.3838542141 0.2268763874 -2.3486280061
H 3.5210976174 -2.1879475922 -2.0392459279
H 3.0578513938 -0.5965626667 -2.6979116111
H 1.7393516727 2.335650554 1.1226014616
H 2.69568805 1.864868297 2.5495227397
H 4.0776728765 3.2555827867 1.0154483477
H 4.709882751 1.5964394977 1.0486882124
H 3.7321921817 2.1483249729 -0.3220070543
H -0.2281157613 -0.8292651679 1.7254649202
H -0.6597787019 -2.5758190255 1.6207156705
H -5.4455715236 -0.0760608754 1.4292225345
H -4.5811819206 -0.7217843795 0.0082129786
H -4.4113002519 -1.8986432907 2.8281406599
H -5.4392578418 -2.5406234824 1.5369614187
H -3.6794454037 -2.5819004613 1.3680153619
H -3.0163784009 2.7025715394 -2.0084185118
H -1.3815143034 2.1637959444 -1.5399498595
H -1.9916854677 1.3961562115 -3.8416969443
H -1.7089586891 0.0328833974 -2.7587681172
H -3.3679335282 0.5009099492 -3.1707745311
*
