! pbe def2-sv(p) def2/J RI DEFGRID1 loosescf d4 GCP(DFT/SV(P)) printgap
%output
    printlevel normal
end
* xyz 0 1
C 3.716581507 -1.1607471672 -2.6856469144
C 3.973538817 0.198514621 -2.0689806851
O 3.562435514 0.2592030443 -0.6907022938
P 2.0420777815 0.1347570539 -0.2455451472
S 0.7888307346 1.0887123201 -1.4060977367
O 2.0381154203 0.7219358792 1.2151216161
C 2.8809511263 0.2628240793 2.3003731684
C 4.1504895819 1.0843803091 2.3841731775
S 1.8306086982 -1.9713998687 0.0017349337
C 0.153250937 -2.0570265271 0.6775558381
S -1.1414370677 -1.6628737507 -0.5450930236
P -1.9934262781 0.0205937627 0.4008950896
S -1.0949304479 0.8125297884 1.9429730998
O -3.3925856896 -0.6764933265 0.7646171259
C -4.2731130543 -0.14717775 1.7716300979
C -4.9644323762 1.1191014595 1.3073960602
O -2.3038082892 1.0845824084 -0.7281381353
C -2.8247243317 0.699709821 -2.0238460503
C -3.6120355917 1.868910853 -2.5767292533
H 4.1496831927 -1.9448939801 -2.0696580116
H 2.6445435218 -1.3330162193 -2.771665433
H 4.1575455077 -1.1933931195 -3.6767301435
H 3.4400376644 0.9788037152 -2.6203896309
H 5.0386715039 0.4310007603 -2.031977228
H 2.2594943962 0.3924220652 3.1892670046
H 3.1061762692 -0.7970298168 2.1512248812
H 3.9051654544 2.1390270327 2.4760736137
H 4.7165563475 0.7704816105 3.2555888401
H 4.7527830121 0.9394887801 1.491407893
H 0.0557437327 -1.3668136414 1.5201807563
H 0.0160430694 -3.0889912279 0.9891838443
H -4.983542899 -0.9552426026 1.9516403105
H -3.6876727551 0.0431696525 2.6770083237
H -5.6486187232 1.459270968 2.0784244422
H -4.2235314289 1.8971009596 1.1227836851
H -5.5187507641 0.9325194145 0.3909563313
H -1.9655072276 0.4636551182 -2.6575779452
H -3.4478439469 -0.1917963522 -1.9049266866
H -4.4583207348 2.0959448053 -1.9341998715
H -2.9707237684 2.743865403 -2.635461001
H -3.9692037735 1.6167185784 -3.5698051587
*
