! pbe def2-sv(p) def2/J RI DEFGRID1 loosescf d4 GCP(DFT/SV(P)) printgap
%output
    printlevel normal
end
* xyz 0 1
C 3.3323062499 2.4213182483 -1.7001228659
C 4.1855853004 1.9064216195 -0.558924736
O 3.8755081932 0.5405110797 -0.2368751141
P 2.4706278611 0.1101089181 0.3725712106
S 1.812232591 1.3609542289 1.7404344666
O 2.7804047793 -1.3625358899 0.856592023
C 2.9609379318 -1.7367330415 2.2406773362
C 1.913294572 -2.7606554117 2.6298638546
S 1.2991903134 -0.301381038 -1.3429040386
C 0.1745449006 -1.5455137614 -0.6457346217
S -0.8192587851 -0.9442819318 0.7450988503
P -2.4187413973 -0.0321473461 -0.3345307375
S -2.5996114346 -0.6394798539 -2.1947393294
O -2.3543815068 1.5179739366 -0.0387217889
C -1.2458806288 2.3879979574 -0.3161982715
C -1.0198009728 2.5846754266 -1.8023677207
O -3.6830477339 -0.2967599709 0.5739438072
C -4.4357719954 -1.5237850566 0.4940483863
C -5.9055899674 -1.1941491319 0.6640975052
H 3.6503826724 3.4237138365 -1.9677494254
H 3.4214148686 1.7687454945 -2.564914865
H 2.2869920196 2.4505293591 -1.3920710479
H 4.0363800834 2.5152938279 0.3388475972
H 5.2439590284 1.882436714 -0.8209832371
H 3.9697225675 -2.1468387731 2.3113276366
H 2.8838555695 -0.8412410812 2.8659225238
H 0.9170719922 -2.3304236689 2.5398862927
H 1.9828513956 -3.6339277453 1.9873042208
H 2.077388879 -3.0612929492 3.6594836736
H 0.7516619757 -2.3922987849 -0.2855431378
H -0.4912317066 -1.8300072892 -1.463615589
H -1.5293958206 3.3242354138 0.1685428558
H -0.3494665316 1.9952554324 0.1758072881
H -0.6730474227 1.6627397077 -2.2666109208
H -1.9469857655 2.8887697237 -2.2817632394
H -0.2710841756 3.3566285442 -1.9505415567
H -4.2484196053 -1.9964813263 -0.4768627831
H -4.0801350995 -2.1797271642 1.2923969864
H -6.0629551387 -0.680988932 1.60827226
H -6.2392119775 -0.5502544462 -0.1452028764
H -6.4814365982 -2.1137250774 0.6513362735
*
