! pbe def2-sv(p) def2/J RI DEFGRID1 loosescf d4 GCP(DFT/SV(P)) printgap
%output
    printlevel normal
end
* xyz 0 1
C 4.220427341 -0.7862780331 -2.5911248039
C 4.4620203751 -1.3803993027 -1.2186574437
O 3.2323536033 -1.6143874272 -0.5103421915
P 2.3235906624 -0.4262024728 0.031152566
S 3.3391634372 1.0976597867 0.7411183408
O 1.3778855408 -1.2030162218 1.0374947861
C 1.7987661908 -1.5261397753 2.3857672178
C 1.323511551 -0.4723420319 3.3664218057
S 0.9411996341 -0.0258224724 -1.5108262721
C 0.3137051327 1.5229136741 -0.8010239391
S -0.7313404708 1.2658922868 0.6492750331
P -2.3347013293 0.3172522781 -0.3970078969
S -2.712598553 1.0018007712 -2.1870274071
O -3.538656444 0.3702895319 0.6404264628
C -4.4525005893 1.480881201 0.7106806312
C -3.7807202525 2.7552375251 1.1784984226
O -1.9689346174 -1.2170043183 -0.4202861515
C -1.742520577 -2.0090484751 0.7697737656
C -2.9881758532 -2.785374206 1.1429910496
H 3.517677129 -1.3990111275 -3.1504963017
H 3.8078822382 0.2174983517 -2.4948099185
H 5.1604427914 -0.7303744082 -3.1306619789
H 5.086911473 -0.7134729618 -0.6157408132
H 4.9217149163 -2.3676147454 -1.2805322487
H 1.3431382502 -2.4967057959 2.5883688201
H 2.8877002473 -1.6200371758 2.4091993792
H 0.2463556236 -0.3486482402 3.2980686982
H 1.5885856303 -0.7774281552 4.3735172443
H 1.7932479298 0.4844965375 3.1497733269
H -0.26857531 2.0069018909 -1.5851334866
H 1.1518370683 2.1431345416 -0.48252524
H -4.8974525313 1.6216826018 -0.2789362269
H -5.2138369222 1.1454224434 1.416392597
H -4.5362414376 3.516600895 1.343824362
H -3.2351302503 2.5807473235 2.102483788
H -3.0841401174 3.1102335273 0.4207390388
H -0.9185636958 -2.6738848946 0.502089013
H -1.4284670849 -1.3467488659 1.5810974963
H -3.3101808259 -3.395149768 0.3033900546
H -2.766200986 -3.4278324522 1.9893793462
H -3.7907293736 -2.1031312099 1.4095054275
*
