! pbe def2-sv(p) def2/J RI DEFGRID1 loosescf d4 GCP(DFT/SV(P)) printgap
%output
    printlevel normal
end
* xyz 0 1
C 3.1719739375 -1.0644773339 2.6945675267
C 4.2709457734 -0.5690669876 1.7756061458
O 3.8053628916 0.4381987868 0.8564897239
P 2.8158034932 0.0958750216 -0.3271535878
S 3.1078141278 -1.6125221395 -1.2513999956
O 3.13168235 1.3982273077 -1.1734740577
C 2.7428298867 1.5497453227 -2.5488951581
C 1.3568211314 2.1512676409 -2.6818612626
S 0.8729279931 0.378959051 0.4879790983
C 0.0360432156 -1.0652690221 -0.2634064058
S -1.4162079009 -1.5054310897 0.6905977463
P -2.6039308298 0.1529685457 0.0490382027
S -2.276543977 0.7752166517 -1.776003702
O -2.3532737401 1.3339153185 1.0588351388
C -2.4891835844 1.1947462401 2.4969482276
C -1.3472082682 1.9374585037 3.15900507
O -4.0779780951 -0.2891533596 0.4470635327
C -4.6922199526 -1.5507846534 0.1215665587
C -4.6451625308 -1.8608758732 -1.3598006033
H 2.4291363148 -1.6234975028 2.1270764813
H 3.603105243 -1.7188231363 3.4455683975
H 2.6840351815 -0.2257516138 3.1844502025
H 4.6944885819 -1.3968473032 1.1976888145
H 5.0620909363 -0.0646464871 2.3320414909
H 3.4984419705 2.2169368284 -2.9676907844
H 2.8024399002 0.5750598496 -3.0461929839
H 1.1668058443 2.385124315 -3.7244935458
H 0.5867900194 1.461002484 -2.3417884425
H 1.2872461133 3.0622584041 -2.0933061232
H 0.714011348 -1.9179174256 -0.2674062517
H -0.2786547204 -0.8095460954 -1.2776884438
H -3.4575062166 1.6211337949 2.7642441788
H -2.4746890531 0.1319098916 2.7549545967
H -1.4489267573 1.8619231744 4.2366833751
H -0.3963820367 1.5076014024 2.8532067085
H -1.3637882507 2.9830626214 2.8658391234
H -4.1882034042 -2.33234585 0.6965082547
H -5.7188112622 -1.4328594558 0.4725990421
H -5.0829788629 -1.0467160318 -1.9327460827
H -3.6137900776 -1.9927093748 -1.684202125
H -5.1961791782 -2.7751291552 -1.5552031872
*
