! pbe def2-sv(p) def2/J RI DEFGRID1 loosescf d4 GCP(DFT/SV(P)) printgap
%output
    printlevel normal
end
* xyz 0 1
C 4.7914147916 1.7478800094 -0.4080838827
C 4.8200221778 0.2343614202 -0.3836702759
O 3.8205954873 -0.3282867306 0.4878697274
P 2.2676241416 -0.0095479397 0.4163673117
S 1.6140177166 1.6595579905 1.201493196
O 1.6347976682 -1.2308052762 1.1872094719
C 1.9311216446 -2.6147083571 0.8797602887
C 2.9350192317 -3.1712067281 1.8678033541
S 1.8225809146 -0.2894095032 -1.6545168174
C 0.1206660234 0.2746471285 -1.5693673716
S -0.9747635621 -1.0434177928 -0.9067562176
P -2.5215016423 0.2153468705 -0.1843348221
S -4.1171644433 -0.7258542121 0.4478357724
O -2.7024608004 1.2704650525 -1.3598929877
C -3.3276691995 0.8930813178 -2.604943525
C -4.8086712591 1.2171738246 -2.5867469768
O -1.8310788591 1.2099266722 0.8362248725
C -1.9765940936 1.0524343784 2.2582189255
C -1.3094075343 -0.2088690608 2.7678953957
H 5.6153934305 2.1146258542 -1.0116087992
H 3.854004357 2.0997014813 -0.8366932184
H 4.8785099601 2.1460368359 0.6002306183
H 5.7593113158 -0.1394984516 0.027478218
H 4.6639086868 -0.1716858818 -1.3868122594
H 0.9690336019 -3.126238489 0.9504781674
H 2.3030838973 -2.6811365438 -0.1463989414
H 2.5542322861 -3.0739392984 2.8806855164
H 3.1050058309 -4.2204354786 1.6479676092
H 3.874778082 -2.6302255111 1.7937332842
H -0.183002735 0.5111250632 -2.5856214653
H 0.058178494 1.1459310094 -0.9130060894
H -2.8069811305 1.4787203734 -3.3656015403
H -3.1652481008 -0.1752027801 -2.7854221354
H -4.9553994634 2.270796075 -2.3667575914
H -5.2372473166 0.9872841897 -3.5569077854
H -5.3143848474 0.627159518 -1.82562769
H -1.5044431144 1.9470510435 2.6673072236
H -3.0441809649 1.0440911776 2.4980604969
H -1.4160392102 -0.2600723174 3.8465343136
H -1.7812936895 -1.0845089189 2.3218381317
H -0.2516847123 -0.208437318 2.5138003771
*
