! pbe def2-sv(p) def2/J RI DEFGRID1 loosescf d4 GCP(DFT/SV(P)) printgap
%output
    printlevel normal
end
* xyz 0 1
C 5.2071759616 -0.5523407329 -2.7179313293
C 3.8502703658 -0.9552204226 -2.1778441921
O 3.5448706058 -0.0961447478 -1.0593191097
P 2.0577911527 0.0652735656 -0.5238900715
S 0.7593107634 0.5785532089 -1.8959805538
O 2.2111477566 1.1676687492 0.5832311466
C 3.228079319 1.1823906696 1.6205861766
C 2.6858894869 0.6227391329 2.9207565155
S 1.7651420229 -1.8214611249 0.41342258
C 0.1531626479 -1.5706297585 1.2029269115
S -1.2602714692 -1.5789074869 0.0593114499
P -1.969252119 0.417483031 0.3246074009
S -0.9128360539 1.5479798992 1.5185211897
O -3.4650813863 0.1793008117 0.8267388241
C -3.734295079 -0.3510723807 2.1391734226
C -5.2129545946 -0.1751104206 2.4195119646
O -2.2126369386 1.0514870683 -1.0874272637
C -2.8469742237 0.3618962981 -2.1934262906
C -4.3196950238 0.7048363266 -2.2664754362
H 5.184044352 0.4816957406 -3.0506681979
H 5.9620531857 -0.6570694258 -1.944232116
H 5.4594348119 -1.1931568769 -3.5562671381
H 3.8511755232 -1.9880984995 -1.8200856143
H 3.0650058511 -0.8356516275 -2.9315974044
H 4.0994581322 0.6272140261 1.270356547
H 3.4761299336 2.2400292634 1.7210602663
H 2.5473847511 -0.4534460047 2.8537689641
H 3.3911038155 0.8381176505 3.7171038919
H 1.7327795917 1.0940603629 3.1524185393
H 0.1514595451 -0.618249396 1.7414791844
H 0.0317371514 -2.4141701675 1.8773876669
H -3.4494572843 -1.4072618373 2.145424919
H -3.1204957713 0.1927651654 2.8649635071
H -5.4355831422 -0.5629332996 3.407994247
H -5.4766887223 0.877972528 2.3791525035
H -5.7995356897 -0.7140761765 1.6812307062
H -2.3001263287 0.7098838204 -3.07228138
H -2.6916610766 -0.7143886434 -2.0760753816
H -4.4465168835 1.7806846074 -2.350027151
H -4.750448846 0.2228313509 -3.1383820563
H -4.8310823529 0.3590710894 -1.3721240078
*
