! wb97x-v def2-tzvp def2/J RIJCOSX DEFGRID2 scfconv7 GCP(DFT/TZ) printgap
%output
    printlevel normal
end
* xyz 0 1
C 5.3270374420026085 -2.71742499939395 -0.7727503513114172
C 4.733942546322192 -2.1468131935681787 -2.039035462903082
O 3.2697656753456212 -2.2540818618221667 -2.0181437463606358
C 2.602095763658687 -1.3024267538874725 -1.3562952644207054
O 3.120246311114778 -0.34152139500950274 -0.8132185395673226
C 1.1179365312392542 -1.5693683743217495 -1.368323048757895
C 0.3818483843120384 -0.4815512751655176 -0.5999131209301628
H 0.48090716028448155 0.48997149116254995 -1.0910463328592381
C 0.8451254681151258 -0.4002676383544871 0.8429317902177661
O 1.1671036593220232 -1.366335550589884 1.511829853337648
O 0.8069356080117811 0.8545665987472314 1.2884216235089117
C 1.107240293544756 1.0566907891441186 2.710173837576816
C 0.9201975764834112 2.5239049475964643 2.9936049242033547
S -1.422032851288418 -0.9278781735706496 -0.572776567037743
P -2.336416338236385 0.9408723191682034 -0.11614812972965811
S -1.7091773530452095 2.484356270449397 -1.1087431228715146
O -3.8771641777755836 0.5006835167134036 -0.28441116587642484
C -4.486797359917014 0.4449956290146798 -1.6067313318268344
O -2.246023571956527 1.181221550925441 1.4659147859521935
C -2.5404444006306006 0.12373075983299568 2.4280542276154216
H 5.0208088424818245 -2.143892426300513 0.1062476963609247
H 5.02800877220787 -3.7610502531710437 -0.6403599537802469
H 6.4185872052421935 -2.6793960207552443 -0.8444869543180551
H 5.0231784499228045 -2.7264159591759203 -2.916954812714676
H 5.004898375232129 -1.0994452167594144 -2.190426279604893
H 0.9444123597320968 -2.5607722655564897 -0.9358736763643043
H 0.7764414436303796 -1.6030133788510572 -2.4076658827418727
H 0.42324955684700843 0.43196931388123894 3.2921284009341996
H 2.134649834218034 0.7261990669619999 2.888229613091134
H 1.60173168307596 3.1309640391626887 2.3910788733471877
H -0.10911892860111265 2.8343176797705594 2.790970953438914
H 1.1348935726932514 2.710896874227034 4.049755868331877
H -4.525308827871656 1.447819224372361 -2.038040852730735
H -5.4943000994624045 0.061903546462320734 -1.4463125874304443
H -3.929710966360952 -0.23120012327512277 -2.2606327585997885
H -3.53805090643772 -0.285933639121056 2.25311601318889
H -2.497305926051953 0.6048436830115769 3.405003456020244
H -1.7848521849508878 -0.6631708897823337 2.3611960881273726
*
