! pbe def2-sv(p) def2/J RI DEFGRID1 loosescf d4 GCP(DFT/SV(P)) printgap
%output
    printlevel normal
end
* xyz 0 1
C 4.3866278658 0.8894793629 -2.1382158524
C 3.9565061491 -0.4799269312 -1.6580442036
O 3.5847903728 -0.492006006 -0.2647212448
P 2.5108688631 0.4719024607 0.3959579699
S 3.0201396128 2.3062827126 0.8409356231
O 2.1352605699 -0.2892912543 1.7239461308
C 1.8233498983 -1.701573004 1.7826876047
C 3.0297557486 -2.488473433 2.2491913046
S 0.8366156006 0.2940813186 -0.9057060418
C -0.0889284664 1.655491167 -0.121221771
S -1.7879687421 1.7232290326 -0.7160088903
P -2.3829743797 -0.1325653747 0.1191615203
S -1.6086064082 -0.6580602508 1.8326119192
O -2.1205796488 -1.2462214494 -0.9821301918
C -2.6398979506 -1.1292742804 -2.3307393326
C -1.5102833083 -0.8877901444 -3.3109683041
O -3.9488276078 0.1735996451 0.1173775634
C -4.8594452716 -0.5324169178 0.9832825073
C -5.0504001745 -1.9702170059 0.5432275643
H 5.1890821142 1.2761365689 -1.5145269907
H 4.7295713469 0.8198795434 -3.1654397677
H 3.549758973 1.5847675599 -2.0887266405
H 4.7768030334 -1.1978844362 -1.7100901448
H 3.1044056932 -0.8433230267 -2.2390405362
H 0.9945473749 -1.7729348417 2.4907119768
H 1.4830296893 -2.0337599029 0.7976649547
H 3.8434092836 -2.3872587133 1.5356333372
H 3.361963809 -2.1163319879 3.2144227871
H 2.7567691753 -3.5348082316 2.342064264
H 0.385481801 2.6029197044 -0.3714714425
H -0.088548701 1.495869485 0.9594522079
H -3.1340863952 -2.0826627006 -2.5257455018
H -3.3730192748 -0.3180418417 -2.3623528389
H -1.0314732975 0.0689387964 -3.1162196607
H -0.7638581883 -1.6710369359 -3.2180699601
H -1.9109733576 -0.88706339 -4.31950368
H -4.4713016413 -0.4903472978 2.0058699148
H -5.7851978833 0.0405743529 0.915748428
H -5.407819086 -2.008081341 -0.4825360683
H -4.1032766611 -2.5051848759 0.6113576622
H -5.7742711416 -2.4513485435 1.1935452127
*
