! pbe def2-sv(p) def2/J RI DEFGRID1 loosescf d4 GCP(DFT/SV(P)) printgap
%output
    printlevel normal
end
* xyz 0 1
C 5.4075800089 -0.26241234 -0.7950026739
C 4.4404436765 -0.9280150843 0.1654163965
O 3.4676285242 0.0073312815 0.6659633567
P 2.0782801899 0.2970945139 -0.0522674399
S 2.1585497486 0.9773122251 -1.8935829299
O 1.4142486587 1.2295793596 1.0375333416
C 1.4154627727 2.6663175779 0.9185842609
C 2.8131200327 3.2314205969 1.0478702537
S 1.0578242473 -1.5421538159 0.2162094127
C 0.2246487111 -1.7001740249 -1.4037173037
S -1.5084076202 -2.19164342 -1.2493939403
P -2.2518148168 -0.4903440185 -0.2441101363
S -1.3495971746 1.209547453 -0.6496718457
O -2.3355842819 -0.8464074573 1.3047879827
C -1.4462553675 -0.3754493754 2.3303078472
C -2.2746415064 0.1286181939 3.4959455372
O -3.7513163767 -0.6759434274 -0.7064628336
C -4.8891917051 -0.1887389488 0.0386451584
C -4.9008705017 1.3226714194 0.1412803405
H 4.879248343 0.1021864952 -1.6731193501
H 5.8987484682 0.5762470539 -0.3095074831
H 6.1553592345 -0.9846484492 -1.1062789452
H 4.9538637682 -1.2854076606 1.0601296475
H 3.9221784917 -1.7639668345 -0.3139831122
H 0.9649334688 2.9351768518 -0.0427996161
H 0.7633174757 2.9967329593 1.7279970936
H 3.4257835632 2.8854852482 0.215851283
H 2.7676766915 4.3156420463 1.0270921985
H 3.2652830572 2.900878135 1.9791566287
H 0.7087335322 -2.4931013359 -1.9680333306
H 0.304438355 -0.7422471048 -1.9258346289
H -0.8153590131 -1.2187264658 2.6215756477
H -0.8143832698 0.4196999249 1.9201620831
H -2.9315079626 -0.6595816386 3.8525301242
H -1.608906399 0.4306435767 4.2977497966
H -2.8763360096 0.9813939279 3.1916718776
H -5.7425744656 -0.5587306263 -0.5316833754
H -4.8750229307 -0.6495892041 1.0286482209
H -4.8770173699 1.7690638225 -0.8500512498
H -5.7983793938 1.6443014321 0.6600893223
H -4.0257585765 1.6673857455 0.6912843364
*
