  20
        -33.06899725
 C         -2.1185509841       -0.2705722791       -1.6592616987
 O         -1.5108830100        0.5711477065       -0.6802066734
 C         -0.3751487756        0.0575530523       -0.0219097426
 C          0.7483431915       -0.2509673188       -1.0373169349
 Cl         2.2628181377       -0.5308997725       -0.1649699998
 O         -0.0129555630        0.9937968150        0.9380017649
 C          0.3287375744        2.3000667665        0.4713960191
 O         -0.6500737811       -1.1412433987        0.6211973892
 C         -1.5634921440       -1.0622355922        1.7212015676
 H         -3.1263125710        0.1182889445       -1.7796245451
 H         -2.1521069434       -1.3034820766       -1.3100308725
 H         -1.5781657239       -0.2098526770       -2.6055124158
 H          0.8908391232        0.5874831527       -1.7158253630
 H          0.5075118688       -1.1652178584       -1.5746760334
 H          0.3489212892        2.9132308314        1.3678625686
 H         -0.4281019849        2.6660226425       -0.2220616045
 H          1.3143835805        2.2957397363        0.0013088356
 H         -1.8089122313       -2.0942748778        1.9533304925
 H         -2.4552857269       -0.5052117766        1.4302304212
 H         -1.0854299139       -0.5758899912        2.5716801111
