  20
        -33.06899725
 C         -2.1185509841       -0.2705722791       -1.6592616987
 O         -1.5108830100        0.5711477065       -0.6802066734
 C         -0.3751487756        0.0575530523       -0.0219097426
 C          0.7483431915       -0.2509673188       -1.0373169349
 Cl         2.2628181377       -0.5308997725       -0.1649699998
 O         -0.0129555630        0.9937968150        0.9380017649
 C          0.3287375744        2.3000667665        0.4713960191
 O         -0.6500737811       -1.1412433987        0.6211973892
 C         -1.5634921440       -1.0622355922        1.7212015676
 H         -3.1263125710        0.1182889445       -1.7796245451
 H         -2.1521069434       -1.3034820766       -1.3100308725
 H         -1.5781657239       -0.2098526770       -2.6055124158
 H          0.8908391232        0.5874831527       -1.7158253630
 H          0.5075118688       -1.1652178584       -1.5746760334
 H          0.3489212892        2.9132308314        1.3678625686
 H         -0.4281019849        2.6660226425       -0.2220616045
 H          1.3143835805        2.2957397363        0.0013088356
 H         -1.8089122313       -2.0942748778        1.9533304925
 H         -2.4552857269       -0.5052117766        1.4302304212
 H         -1.0854299139       -0.5758899912        2.5716801111
  20
        -33.06811368
 C         -1.2305914097        0.5245525639       -1.8254581639
 O         -1.1176090889        0.0111170697       -0.4981975250
 C          0.0228153393        0.3742472069        0.2086688339
 C          1.3497861799        0.0230234590       -0.4952968183
 Cl         1.3305874668       -1.6705680604       -0.9954607282
 O          0.1053351517        1.7677605890        0.3740175565
 C         -0.8905679856        2.3619303080        1.2107637951
 O          0.0141771754       -0.2814351831        1.4389633557
 C         -1.1828804049       -0.9350276929        1.8693385423
 H         -2.2800795057        0.4067246968       -2.0813640205
 H         -0.6118494743       -0.0541240105       -2.5138585403
 H         -0.9471962972        1.5779727065       -1.8534141595
 H          2.1551127363        0.1600376322        0.2226412924
 H          1.4974629002        0.6496183144       -1.3711934966
 H         -0.7648227779        2.0279934649        2.2419757114
 H         -1.8917147719        2.1143133174        0.8512001097
 H         -0.7135621583        3.4306236243        1.1350479975
 H         -1.4173363953       -1.7730781823        1.2115111919
 H         -2.0277606277       -0.2473515899        1.8990250109
 H         -0.9413659750       -1.2901283494        2.8673002422
  20
        -33.06798999
 C         -1.4979193815       -0.5452101156       -1.5896180656
 O         -1.0490231307        0.3679712901       -0.5893483886
 C         -0.2389973238       -0.1681417716        0.4206703748
 C          1.0729904386       -0.8018685098       -0.1039028883
 Cl         1.7948547735        0.1255560047       -1.4280190103
 O         -0.0205356790        0.8382880799        1.3559901840
 C          0.5496666385        2.0632489146        0.8957637253
 O         -0.8616511257       -1.2235205372        1.0819412042
 C         -2.0182100974       -0.8770153518        1.8558000668
 H         -1.8312501870       -1.4789586648       -1.1340290113
 H         -0.7063937809       -0.7424426285       -2.3154498386
 H         -2.3295977339       -0.0426492004       -2.0758472612
 H          0.8568503702       -1.8039139628       -0.4686183218
 H          1.7854453397       -0.8436120570        0.7176571279
 H          1.6117069227        1.9398259775        0.6750385063
 H          0.4190439148        2.7533198696        1.7245767290
 H          0.0224626643        2.4250666912        0.0131680740
 H         -2.4733002522       -1.8286802984        2.1132982680
 H         -2.7012911170       -0.2666281198        1.2632892678
 H         -1.7195479226       -0.3332820156        2.7516398720
  20
        -33.06766253
 C         -1.5050683625       -0.4639598603       -1.6017155957
 O         -1.0235995735        0.4025868772       -0.5748847457
 C         -0.2212280840       -0.1868785363        0.4016996636
 C          1.0417934086       -0.8873491224       -0.1569438721
 Cl         1.8513547643        0.0855752588       -1.3928568830
 O          0.1077584599        0.7872382041        1.3444024701
 C          0.3076161614        2.1291051479        0.8973983329
 O         -0.8824024340       -1.2207202960        1.0674758194
 C         -2.0067728895       -0.8262842843        1.8641649650
 H         -1.8547004995       -1.4056573042       -1.1755990096
 H         -0.7262144728       -0.6505610595       -2.3436445581
 H         -2.3304419874        0.0749165550       -2.0588869069
 H          0.7619975774       -1.8406840330       -0.6001784061
 H          1.7339014674       -1.0378429924        0.6690530293
 H          1.1210907399        2.1859716756        0.1733953016
 H          0.5689289658        2.6720669772        1.8012190429
 H         -0.6052985080        2.5304522922        0.4576474754
 H         -2.6908545556       -0.2110571922        1.2771023679
 H         -1.6690580707       -0.2731309852        2.7405212439
 H         -2.4799282875       -1.7593324025        2.1543877854
  20
        -33.06755618
 C         -2.1365610070       -0.0861462813       -1.8103115964
 O         -1.2538442872        0.7844130368       -1.0995031413
 C         -0.3785438776        0.1970803248       -0.1840534471
 C          0.6646514007       -0.6690479185       -0.9331678596
 Cl         2.1644727236       -0.8463274370       -0.0127275640
 O          0.3191195256        1.2142199497        0.4502540974
 C         -0.4841727019        2.2432895426        1.0368767769
 O         -1.1704146076       -0.5424389908        0.7078621938
 C         -0.4988433525       -1.1910637264        1.7850268808
 H         -2.6727479311       -0.7343480556       -1.1182080076
 H         -1.5876491799       -0.6812862031       -2.5419950174
 H         -2.8275315474        0.5832096207       -2.3147757379
 H          0.9168940112       -0.1620657594       -1.8635118504
 H          0.2637761643       -1.6636350750       -1.1200552926
 H         -1.2697235994        1.8049806338        1.6543222061
 H         -0.9285529483        2.8595467371        0.2553395999
 H          0.2057121239        2.8231179825        1.6428628560
 H          0.2135872892       -0.5154447542        2.2615972014
 H          0.0202393258       -2.0862965894        1.4375917159
 H         -1.2865605282       -1.4619903802        2.4828695947
  20
        -33.06715751
 C         -2.0105851004        0.2652090932       -1.5012526285
 O         -0.6265057325        0.2808826786       -1.1438529882
 C         -0.2569474010       -0.0825306614        0.1503478789
 C          0.9355613621       -1.0583406495        0.0545444920
 Cl         2.1716079605       -0.3572730295       -0.9921029856
 O          0.2168775409        1.0166242833        0.8783251110
 C         -0.6450407265        2.1535256901        0.9387314380
 O         -1.3573497290       -0.6742160842        0.7730403120
 C         -1.1597958202       -1.1476810108        2.1059451729
 H         -2.4036225727       -0.7510402609       -1.4612508304
 H         -2.0190311930        0.6387252863       -2.5214957676
 H         -2.6005302878        0.9110774532       -0.8511748733
 H          0.6051486717       -1.9939280999       -0.3928328441
 H          1.3825880649       -1.2072905849        1.0345823883
 H         -0.7513615774        2.6012015656       -0.0510629836
 H         -0.1467891610        2.8440244001        1.6128159602
 H         -1.6232654096        1.8716290167        1.3347092317
 H         -2.1596281157       -1.2324520271        2.5235830641
 H         -0.5669756730       -0.4362498866        2.6823503933
 H         -0.6732083749       -2.1240587015        2.0964286871
  20
        -33.06690596
 C         -2.6019224764        0.6493457034       -0.7435799751
 O         -1.3092823816        0.1676911259       -1.1297545523
 C         -0.3623248415        0.0911347816       -0.0985105384
 C          0.9040420227       -0.4468555040       -0.7979602825
 Cl         2.2108251725       -0.6013925505        0.3891909690
 O         -0.1695651536        1.3178461445        0.5317313702
 C          0.3413176746        2.3798502120       -0.2776241467
 O         -0.7957449304       -0.7083638744        0.9560870398
 C         -1.0395553299       -2.0850301413        0.6572848813
 H         -3.1867799518        0.6326261166       -1.6579564096
 H         -2.5296823598        1.6628015997       -0.3465108923
 H         -3.0427646800       -0.0020679024        0.0122399096
 H          1.2185595666        0.2432489033       -1.5764248778
 H          0.7032074236       -1.4252997652       -1.2263259685
 H          0.0814813787        3.2884091633        0.2591822112
 H         -0.1260737019        2.3749592396       -1.2639228270
 H          1.4267793239        2.3040579791       -0.3704013761
 H         -1.6873902483       -2.4328919340        1.4575711948
 H         -0.1058143863       -2.6512717489        0.6663564234
 H         -1.5387154076       -2.1897809545       -0.3076612244
  20
        -33.06676186
 C         -2.0307850904        0.4856042114       -1.2518493565
 O         -0.7104853985       -0.0202481541       -1.0544327009
 C         -0.0468366806        0.4262626168        0.0933838085
 C          1.4271533973       -0.0144676239       -0.0512928763
 Cl         1.5948722772       -1.6257792841       -0.7535377778
 O          0.0032098463        1.8237595082        0.1387577845
 C         -0.7623135434        2.5163389980        1.1306603136
 O         -0.6625459857       -0.0201266729        1.2593383782
 C         -0.7611456985       -1.4318695511        1.4390965418
 H         -2.6549121592        0.2827476833       -0.3787862230
 H         -2.4068865919       -0.0493230769       -2.1190378491
 H         -1.9957684348        1.5577998380       -1.4524256333
 H          1.9048635431       -0.0091584474        0.9266997819
 H          1.9127152802        0.6911957698       -0.7228657075
 H         -1.8221967939        2.2720802208        1.0649351038
 H         -0.5958649072        3.5647092423        0.8994890205
 H         -0.3944606770        2.2801739645        2.1292630169
 H         -1.1113089796       -1.9160390202        0.5259060744
 H         -1.4862885016       -1.5596806459        2.2382053047
 H          0.2012149410       -1.8546149431        1.7321774744
  20
        -33.06442944
 C         -1.4553537571        0.9031684654       -2.1269360382
 O         -1.6415631400        0.1818201070       -0.9047744138
 C         -0.5132118904       -0.0155681156       -0.1002529889
 C          0.5177871974       -0.9004138227       -0.8389706424
 Cl         2.1302195334       -0.8130214086       -0.1138655244
 O          0.1266026366        1.1822603109        0.2169861419
 C         -0.6734110226        2.1428939384        0.9125253085
 O         -1.0824519971       -0.6341191790        1.0106293275
 C         -0.1959744566       -1.0702800365        2.0419807500
 H         -1.2491848464        0.2111378183       -2.9454618484
 H         -0.6484520804        1.6309609242       -2.0308975013
 H         -2.3990277295        1.4124678640       -2.3081694323
 H          0.6220082069       -0.5518860255       -1.8636473136
 H          0.1774922934       -1.9341680084       -0.8153200629
 H         -1.5903608913        2.3476387179        0.3584690833
 H         -0.0505340343        3.0302294085        0.9735669991
 H         -0.9285031410        1.7809250400        1.9095403537
 H          0.5411819407       -0.3010379783        2.2798037093
 H          0.3147175940       -1.9913496086        1.7551081656
 H         -0.8396821895       -1.2536866796        2.8980235952
  20
        -33.06354365
 C         -2.0795431871        0.8314606397       -1.5699011701
 O         -1.5982044477       -0.2803335845       -0.8193949828
 C         -0.4173800020       -0.1019224999       -0.0617325810
 C          0.7915593419       -0.3216326338       -0.9912603133
 Cl         2.2785656546       -0.5164807273       -0.0518097572
 O         -0.4591351062        1.1080623292        0.6283226043
 C          0.3746977752        2.2040973602        0.2467955679
 O         -0.3747391546       -1.1475279452        0.8530417347
 C         -1.4432223815       -1.1938400194        1.8024905827
 H         -3.0124653794        0.4813626985       -2.0027135698
 H         -1.3802108329        1.1013735038       -2.3640909074
 H         -2.2680424440        1.6860418543       -0.9182358697
 H          0.9314534486        0.5052385256       -1.6826114505
 H          0.6150793921       -1.2533645784       -1.5262893575
 H          0.1065684232        2.9883032849        0.9506233565
 H          0.1630344861        2.5357120642       -0.7709510507
 H          1.4313079211        1.9576825145        0.3560877903
 H         -1.2189467847       -2.0539798787        2.4257142249
 H         -2.3946858479       -1.3259018644        1.2865546472
 H         -1.4590670326       -0.2787508900        2.3958312837
  20
        -33.06324385
 C         -2.0471053999        0.4831450220       -1.8991075190
 O         -1.7329191771       -0.1567597969       -0.6613612199
 C         -0.5086364772        0.1653411748       -0.0668030796
 C          0.6440068133       -0.4492582411       -0.9194194704
 Cl         2.1033119506       -0.7427625954        0.0477181978
 O         -0.4275430560        1.5554852414       -0.0099753939
 C          0.6166134397        2.1261806392        0.7771677836
 O         -0.5269684204       -0.3205890977        1.2368657834
 C         -0.8725663645       -1.6951264707        1.4082775043
 H         -1.4107484051        0.1064748505       -2.7018244044
 H         -1.9436644322        1.5634624379       -1.8084033444
 H         -3.0834118255        0.2155650776       -2.0849236879
 H          0.9082430472        0.2401210660       -1.7192547115
 H          0.3182789696       -1.4068000618       -1.3228997730
 H          1.5874087123        1.9840730914        0.2980165354
 H          0.6250947490        1.6925936489        1.7768335288
 H          0.3742690812        3.1840534377        0.8244084062
 H         -1.8158993029       -1.9156265284        0.9100412783
 H         -0.9710923104       -1.8177880403        2.4830462459
 H         -0.0804320060       -2.3446813830        1.0296860346
  20
        -33.06268612
 C         -2.1019056416        0.1711372822       -1.2419533226
 O         -0.6896798190        0.1993607790       -1.0310169880
 C         -0.1769112084       -0.2462470727        0.1896688073
 C          1.1135199432       -1.0360626954       -0.1118567744
 Cl         2.2017193947       -0.0556310713       -1.0897646375
 O          0.1822014389        0.8014671321        1.0419038759
 C         -0.4446676377        2.0751331739        0.8867488085
 O         -1.0221403920       -1.1772851944        0.8114948404
 C         -1.7971583206       -0.7672162863        1.9408352597
 H         -2.6115976427        0.9262904550       -0.6401513761
 H         -2.5004680626       -0.8202311489       -1.0235449147
 H         -2.2159482904        0.3990314244       -2.2980432400
 H          0.8614379484       -1.9354558113       -0.6689949978
 H          1.6128831131       -1.2712310759        0.8253308332
 H          0.1365002527        2.7363286333        1.5235113514
 H         -1.4840354855        2.0517558200        1.2212064844
 H         -0.3865672957        2.4073955716       -0.1507186578
 H         -2.1935710053       -1.6962305854        2.3405362306
 H         -2.6160247013       -0.1082078964        1.6447870604
 H         -1.1649884183       -0.2761087257        2.6811861531
