! pbe def2-sv(p) def2/J RI DEFGRID1 loosescf d4 GCP(DFT/SV(P)) printgap
%output
    printlevel normal
end
* xyz 0 1
C 4.9937009784 1.2863110325 -1.1191036111
C 4.8432508856 0.5928844643 0.219168883
O 3.7786121736 -0.3743184662 0.2052389011
P 2.2494614957 0.0470650917 0.0901104243
S 1.7920852906 1.6404530285 1.1449733845
O 1.5179392636 -1.301450186 0.4845367247
C 1.4296679733 -1.7414535043 1.8558628121
C 0.3877975851 -2.8383568183 1.9259739934
S 1.8414032543 0.0840171317 -1.9694518274
C 0.0951026869 0.5389105791 -1.8735156549
S -0.9647794967 -0.9229026527 -1.5453616451
P -2.2140274747 -0.1492821139 -0.0492246673
S -3.6841011953 -1.3231880706 0.4972090157
O -2.6833126096 1.2995612469 -0.5397063078
C -3.9092879845 1.4910249345 -1.264441292
C -3.7844870275 1.0439397934 -2.7069902684
O -1.1345448065 0.2505489563 1.04604911
C -1.5150874921 0.9909947513 2.2302134696
C -1.9048140811 0.0663290881 3.3654173693
H 4.1204581305 1.9066067761 -1.3169227728
H 5.8772056344 1.9162608631 -1.1005709751
H 5.0879095258 0.5527969801 -1.9157561196
H 4.6382580824 1.3210655081 1.0106790908
H 5.7269446794 0.0062693045 0.4732872199
H 2.4143930783 -2.1057985161 2.1593045625
H 1.1576280521 -0.881225899 2.4772082695
H 0.3187942054 -3.2057568975 2.9449232999
H -0.5841903122 -2.4587793031 1.6161900355
H 0.6642515914 -3.6546802696 1.2648824004
H -0.169655038 0.9383100415 -2.8485741491
H -0.0490747917 1.2731467703 -1.0812421259
H -4.7026993212 0.9336720824 -0.7556834099
H -4.0994065699 2.5625700066 -1.1883495823
H -4.7116276082 1.2590144552 -3.2284299042
H -2.9680893091 1.5670241199 -3.1978009373
H -3.5965977852 -0.0283199958 -2.7492823752
H -0.6260547903 1.5772154525 2.4755109517
H -2.3336923645 1.6677432436 1.9746630181
H -2.7719054014 -0.529897424 3.0889840758
H -1.0842270901 -0.6024325484 3.6100287793
H -2.1492678155 0.6651360007 4.2371466257
*
