! pbe def2-sv(p) def2/J RI DEFGRID1 loosescf d4 GCP(DFT/SV(P)) printgap
%output
    printlevel normal
end
* xyz 0 1
C 4.5508653239 -1.5591781655 -1.9471303414
C 3.7651951912 -2.2125402088 -0.8299396518
O 3.3628007621 -1.2770017581 0.1885605932
P 2.5418877751 0.0592177177 -0.0636522153
S 3.4694968729 1.6312277039 -0.7675130596
O 2.0060945979 0.3840473484 1.3781907573
C 1.2620845441 -0.5435086404 2.2090881035
C 0.7177092921 0.2447558278 3.3820014865
S 0.8834082936 -0.6178697297 -1.2330615869
C 0.1918702861 1.0257295211 -1.5090317056
S -0.7149810541 1.6611722564 -0.0772839496
P -2.3598517962 0.3372945226 -0.288386164
S -2.9725470013 -0.0423386946 -2.104063173
O -3.5044661341 1.0067325848 0.5738742979
C -3.3252836978 1.6398671549 1.8632358718
C -3.2416913064 0.6244975234 2.9842773802
O -1.8043818485 -0.932949801 0.5128604501
C -2.1891717882 -2.2777335815 0.1736253511
C -3.5930300687 -2.5795543267 0.6560905334
H 4.8968315109 -2.3204286822 -2.638878295
H 3.9220588675 -0.850596518 -2.4847054995
H 5.4061422725 -1.0208851264 -1.5454708185
H 4.3724772976 -2.9379165535 -0.2856433406
H 2.8660729221 -2.6966240434 -1.2212803802
H 0.4560172763 -0.977078449 1.6098257566
H 1.9428603229 -1.334174384 2.529509969
H 0.0694675373 1.0402525656 3.0235436504
H 0.1567072074 -0.41935578 4.0317205496
H 1.5352879286 0.6903350419 3.941070112
H -0.4862856753 0.9506992307 -2.3596404699
H 1.0056141027 1.7259778384 -1.7062179355
H -2.4276181247 2.2633238577 1.8225837282
H -4.2067143851 2.2758025536 1.9618987008
H -3.1648129068 1.1501669723 3.9309980963
H -4.1340587847 0.0042332989 2.9920212405
H -2.3678127785 -0.0084790032 2.8561796602
H -2.1169097108 -2.3990459906 -0.9116974444
H -1.4445823267 -2.9062435658 0.664030855
H -3.6597183459 -2.4570966433 1.733605501
H -4.2963003637 -1.8985157673 0.1768639799
H -3.8541893243 -3.5994109131 0.3922034527
*
