! pbe def2-sv(p) def2/J RI DEFGRID1 loosescf d4 GCP(DFT/SV(P)) printgap
%output
    printlevel normal
end
* xyz 0 1
C 3.0259015858 -4.0442350623 0.0035681163
C 2.7319188853 -2.6182758052 0.4241949295
O 2.2035209653 -1.9183262165 -0.7185835138
C 2.0857330787 -0.6141983095 -0.6556229845
O 2.3799171833 0.0662974124 0.3083946934
C 1.5713088182 -0.0204466906 -1.9539897975
C 0.379089296 0.9070928921 -1.6988786878
H 0.2515321658 1.5876650918 -2.5437348734
C 0.5724278834 1.7176185282 -0.4308944444
O -0.1245216931 1.5547874727 0.5556145718
O 1.5098321584 2.6091397068 -0.558277176
C 1.853759603 3.4144771512 0.5903382273
C 0.8724240317 4.5595691976 0.7758792965
S -1.1953722002 -0.0003495393 -1.5789394208
P -1.6061417583 -0.3479633298 0.4861063311
S -0.3250890817 -1.1459666292 1.7393005789
O -2.5157080355 0.8152407185 1.0657793829
C -3.756794216 1.2040771222 0.4476456832
O -2.7894740615 -1.41611687 0.1972399264
C -2.5166234811 -2.7614067667 -0.1928028116
H 2.1148681827 -4.5225090078 -0.3423494519
H 3.7578766775 -4.0541384512 -0.7985529696
H 3.4161519637 -4.5919998719 0.8544975479
H 3.6304007104 -2.0928925167 0.7627789066
H 1.9857529507 -2.5698611178 1.2246303916
H 1.2910813432 -0.8179854747 -2.6405081679
H 2.3853887978 0.5689617363 -2.381371533
H 1.8758044693 2.7621079823 1.4677635299
H 2.8562996986 3.7761428113 0.3634713001
H 0.8168585899 5.1563271717 -0.1303508514
H -0.1164952428 4.1730025539 1.012605804
H 1.2084216917 5.1843658645 1.5966853999
H -4.0423178077 2.1265213312 0.9470661653
H -4.5047212821 0.4289207878 0.6041987311
H -3.6123894197 1.3700768926 -0.6202337128
H -1.7188588269 -3.1743263114 0.4280386192
H -2.2272273712 -2.7928491154 -1.2431653563
H -3.4424271978 -3.3084362193 -0.0333910568
*
