! pbe def2-sv(p) def2/J RI DEFGRID1 loosescf d4 GCP(DFT/SV(P)) printgap
%output
    printlevel normal
end
* xyz 0 1
C 4.4624992282 -1.78414243 -0.3738902822
C 4.8276392502 -0.3562370892 -0.0251163534
O 3.7013954878 0.3953879322 0.4657330447
P 2.4321747895 0.7178377623 -0.4340516528
S 2.781110789 1.1747240034 -2.3011468951
O 1.7438639921 1.9057758162 0.3378545597
C 1.4460900316 1.8632263709 1.7551007465
C 2.5113773485 2.5898188401 2.5481537571
S 1.1419644854 -0.9504973064 -0.1229909025
C 0.0937953607 -0.616239456 -1.5808414597
S -1.4061067947 -1.6164143527 -1.5513632736
P -2.4944488071 -0.4956995838 -0.112834185
S -1.813981611 1.3021421984 0.3055245685
O -2.7282354996 -1.4938098354 1.1021378484
C -1.69508809 -1.9903179496 1.9735464348
C -1.402462845 -1.0186056584 3.1004658343
O -3.9150904002 -0.524007527 -0.8015594166
C -4.9468991009 0.4307063147 -0.4765495564
C -5.4674781703 0.2335509576 0.931440314
H 3.9557661226 -2.2620566475 0.4607804648
H 3.8041159389 -1.7987411308 -1.2412929744
H 5.3661926065 -2.3358462825 -0.6121140217
H 5.2302163953 0.162407876 -0.9002592323
H 5.5447181941 -0.3130871624 0.7958489077
H 0.4724030281 2.3506168571 1.8428873213
H 1.364068253 0.8176793193 2.0660546259
H 2.6109922146 3.6098397676 2.1875247975
H 2.2230234248 2.6056387788 3.5944273563
H 3.4678056407 2.0844503526 2.4446375054
H 0.6422188523 -0.8808585284 -2.4823312314
H -0.169083243 0.4437191145 -1.5802623914
H -2.1013120782 -2.9290800817 2.3544796813
H -0.7928898574 -2.1940339292 1.3873003401
H -2.3027649642 -0.8312527729 3.6790897459
H -0.6414005727 -1.442275117 3.7473207114
H -1.0425689936 -0.0734479857 2.7005726961
H -4.5402821064 1.4397049304 -0.6014744429
H -5.7173142966 0.246901515 -1.2263303609
H -4.6769491342 0.451890602 1.6483114731
H -6.3010847516 0.906561089 1.1061368705
H -5.7929884578 -0.793880479 1.0698814205
*
