! pbe def2-sv(p) def2/J RI DEFGRID1 loosescf d4 GCP(DFT/SV(P)) printgap
%output
    printlevel normal
end
* xyz 0 1
C 0.6558304397 1.6968314025 -0.0494221639
C 1.411669085 0.3880416192 -0.2958738724
H 1.5884843246 0.2700684728 -1.377528692
C 0.5589221427 -0.7985919328 0.1953433545
H 0.4346433412 -0.72364766 1.2826027326
C -0.8075886508 -0.7409977615 -0.5060879081
H -0.6552740681 -0.8597657385 -1.5854513775
C -1.4676399171 0.637674593 -0.2558350541
H -2.3597862753 0.728846225 -0.8862980751
O -0.6348328185 1.6941883294 -0.6411210392
O -1.9348870597 0.7311614788 1.0574735753
O -1.6644745713 -1.7781235717 -0.1134919785
O 1.233619287 -2.0179676428 -0.003019197
O 2.635653741 0.4562924199 0.3914314056
H 1.1819081212 2.5309968705 -0.5127173504
H 0.6079799742 1.8771332999 1.0317599981
H -1.2080181762 0.9209119859 1.6689938829
H -2.0736079766 -1.5455756483 0.7357740177
H 1.0826415716 -2.3416556537 -0.9020531997
H 3.0086722561 -0.4384932907 0.4383488267
*
