! pbe def2-sv(p) def2/J RI DEFGRID1 loosescf d4 GCP(DFT/SV(P)) printgap
%output
    printlevel normal
end
* xyz 0 1
C 1.6214051862 -2.244221589 1.5687148596
C 3.0711509021 -1.953035196 1.2402206336
O 3.2961031441 -0.5571555572 0.9773212991
P 2.8205720202 0.1545534824 -0.3644426018
S 3.0016857935 -0.919790065 -1.9924255101
O 3.7435239837 1.4329994082 -0.3999956647
C 4.2401082188 2.1436318997 0.7605230378
C 3.1268277441 2.6732571629 1.6383948153
S 0.8503200599 0.9251448877 -0.0031977313
C -0.0687645975 0.1107045781 -1.3307664352
S -1.1859043897 -1.1809077749 -0.7371858089
P -2.7156288111 0.1496274714 -0.0738205653
S -3.1278044435 1.6352439419 -1.2770333806
O -2.2449213105 0.6577123143 1.3393803261
C -1.9308080002 -0.2360632226 2.4403252323
C -0.9377201941 0.4698761641 3.3395990378
O -3.923569341 -0.8135913269 0.3029650288
C -4.9160222976 -1.2378725544 -0.6489199716
C -4.3307310957 -2.1023768204 -1.7465119524
H 1.2773471384 -1.5914714933 2.3666633705
H 0.9986494366 -2.0940235159 0.6877225691
H 1.5275321072 -3.2780890631 1.8847632447
H 3.3940718966 -2.5284955587 0.3669774705
H 3.7249475474 -2.1658795193 2.0874305724
H 4.8902514057 1.4682020639 1.3197669236
H 4.8289421077 2.9514847163 0.3236271801
H 3.5577058341 3.2523124298 2.4492105554
H 2.4543089186 3.305869857 1.0643648867
H 2.5558119948 1.8466277401 2.0572359662
H 0.6424850416 -0.3616148684 -2.0131591744
H -0.6626751599 0.870402661 -1.840669004
H -2.8649287886 -0.4546286434 2.9604974572
H -1.519131312 -1.1638941194 2.0319619797
H -1.3648603299 1.3972989015 3.7092080231
H -0.694094041 -0.1745998226 4.1781418996
H -0.035115812 0.7060820185 2.781789021
H -5.6355170162 -1.7893420329 -0.0420392993
H -5.3901742472 -0.3472651464 -1.0724711686
H -5.1356463332 -2.500576421 -2.3559310478
H -3.6730175105 -1.5081526396 -2.37937999
H -3.7598470164 -2.9232859399 -1.3197802894
*
