! pbe def2-sv(p) def2/J RI DEFGRID1 loosescf d4 GCP(DFT/SV(P)) printgap
%output
    printlevel normal
end
* xyz 0 1
C 4.7227813001 -1.2855025414 -0.7050170579
C 4.6287410074 0.1547753279 -0.2452651725
O 3.4451968698 0.3973985986 0.5333575579
P 1.9874092221 0.3895790947 -0.1062490294
S 1.9350587695 1.1179320607 -1.9327335901
O 1.1655931844 1.0734190875 1.0648370444
C 1.527520624 2.3290372654 1.6820447655
C 1.4168957142 3.4946010813 0.7210446586
S 1.3140363101 -1.6017132357 0.1009495099
C 0.2977890794 -1.7599657125 -1.3989944905
S -1.4327495502 -2.1690998724 -1.0439492873
P -2.0127038155 -0.4278764654 -0.0290174389
S -1.469525083 1.3108312983 -0.7693968071
O -1.5357876123 -0.7583072214 1.4396844933
C -1.6864688245 0.1901778745 2.520855592
C -0.7384339071 -0.2194931584 3.6283260136
O -3.5892969308 -0.5874516881 0.1048039771
C -4.4939136656 -0.2311688332 -0.9598966316
C -5.8484826641 0.0625728828 -0.3471155571
H 4.6058618654 -1.9605132121 0.1388297822
H 3.9401162302 -1.4932598583 -1.433032961
H 5.6890965574 -1.4505896626 -1.1704104906
H 4.6207468703 0.8318503724 -1.1054692328
H 5.4444727729 0.4175530999 0.4295924825
H 0.8149021424 2.4242079722 2.5034573478
H 2.5416944537 2.2380461414 2.0776533846
H 2.1648537059 3.4107541459 -0.0659158574
H 0.4331104753 3.5032518037 0.2546507406
H 1.5691715618 4.4246573167 1.2592064576
H 0.6765855615 -2.5940304066 -1.9842877155
H 0.3579298718 -0.824135824 -1.9633970052
H -1.4592354185 1.1903070539 2.1361551119
H -2.7280711171 0.1599370669 2.8489334261
H -0.8442150029 0.4659898428 4.4630494617
H -0.9703277378 -1.2285251759 3.9562501018
H 0.2864742542 -0.1980016591 3.2670098178
H -4.090946854 0.6433980357 -1.4822226135
H -4.5433251157 -1.0734298054 -1.6543169518
H -5.7790616283 0.91022199 0.328894816
H -6.5532838546 0.2936310727 -1.1389927769
H -6.1988001004 -0.8037247936 0.2064727299
*
