  17
  -22.4989925800000       0.103579177258154      !gc
 C          1.8415650560       -1.4400854398        0.0003590314
 C          0.5328873742       -0.7174603755       -0.0000966448
 C         -0.6716430612       -1.4059152262       -0.0003125972
 C         -1.8671231188       -0.7038417938       -0.0001456516
 C         -1.8064717718        0.6781392048        0.0002772811
 N         -0.6675362012        1.3530875417        0.0002056547
 C          0.4792024182        0.6843649983       -0.0000800830
 C          1.7280810100        1.5069672217       -0.0002828026
 H          2.4244010730       -1.1709672295       -0.8789898846
 H          2.4244326533       -1.1697423831        0.8794461838
 H          1.6840409624       -2.5153881400        0.0011660031
 H         -0.6749122476       -2.4870380365       -0.0004439817
 H         -2.8163577362       -1.2155985262       -0.0003435287
 H         -2.7038869328        1.2829207067        0.0005642812
 H          1.4654905501        2.5598970928       -0.0016091479
 H          2.3270332147        1.2860195710        0.8810617472
 H          2.3281401995        1.2839120279       -0.8803554398
  17
  -22.4989925000000       0.103570409073266      !gc
 C          1.8415539905       -1.4400696962        0.0000350696
 C          0.5328763319       -0.7174583818       -0.0000047757
 C         -0.6716271808       -1.4059392429       -0.0000867644
 C         -1.8670936030       -0.7038435120        0.0000013966
 C         -1.8064702323        0.6781395225        0.0001207436
 N         -0.6675471966        1.3531140256       -0.0000370791
 C          0.4791670924        0.6843806862       -0.0000987657
 C          1.7280992797        1.5069277954        0.0000274919
 H          2.4261002161       -1.1672873525        0.8770908409
 H          1.6841476336       -2.5153028497        0.0039034811
 H          2.4226865287       -1.1733069118       -0.8812199359
 H         -0.6749384667       -2.4870523080       -0.0000170315
 H         -2.8163827558       -1.2154951722        0.0000656741
 H         -2.7039328017        1.2828471820        0.0002748009
 H          2.3289931289        1.2830070173       -0.8792307994
 H          1.4655842136        2.5598557169       -0.0024760818
 H          2.3261842291        1.2867561212        0.8821911210
  17
  -22.4989922000000       0.103537534989841      !mtd14
 C          1.8415353200       -1.4400419986        0.0002513969
 C          0.5328749118       -0.7174569904       -0.0000994800
 C         -0.6716138499       -1.4059264628       -0.0002242631
 C         -1.8671046285       -0.7038365448       -0.0000747939
 C         -1.8064923145        0.6781335477        0.0002144019
 N         -0.6675473799        1.3530905385        0.0001097391
 C          0.4791749829        0.6843855518       -0.0000646393
 C          1.7281199848        1.5069154346       -0.0001641700
 H          1.6841666756       -2.5153275421       -0.0009068590
 H          2.4251791290       -1.1694108617       -0.8780944659
 H          2.4235352775       -1.1711167682        0.8802446013
 H         -0.6749408619       -2.4870417916       -0.0004169947
 H         -2.8163186722       -1.2156333657       -0.0002196534
 H         -2.7039010317        1.2829104803        0.0003550155
 H          2.3277692306        1.2844994282       -0.8806999618
 H          1.4656337587        2.5598405078       -0.0006201753
 H          2.3274552916        1.2852063022        0.8807585964
  17
  -22.4989920700000       0.103523292794364      !mtd8
 C          1.8415580601       -1.4400748006        0.0000223972
 C          0.5328841729       -0.7174607723        0.0001023630
 C         -0.6716208552       -1.4059218224       -0.0000703339
 C         -1.8671087405       -0.7038332697       -0.0000983980
 C         -1.8064897008        0.6781357054        0.0001048930
 N         -0.6675464173        1.3530968408        0.0000713343
 C          0.4791767275        0.6843804870       -0.0000145168
 C          1.7281001185        1.5069329798       -0.0000936193
 H          1.6841303026       -2.5153139679        0.0052796459
 H          2.4219814412       -1.1743508601       -0.8820562095
 H          2.4268322653       -1.1662398666        0.8762978835
 H         -0.6749556134       -2.4870358386       -0.0000829122
 H         -2.8163382225       -1.2155946277       -0.0002078293
 H         -2.7039067126        1.2829091123        0.0002931932
 H          1.4655672852        2.5598584450       -0.0031480123
 H          2.3260077868        1.2872201288        0.8823210233
 H          2.3291828208        1.2825534788       -0.8791254568
  17
  -22.4989914300000       0.103453205928837      !md6
 C          1.8414842999       -1.4400765121       -0.0009878507
 C          0.5328728533       -0.7174045059       -0.0000071770
 C         -0.6716458378       -1.4059469827        0.0007802425
 C         -1.8670826955       -0.7039050195        0.0005418678
 C         -1.8064206321        0.6781410702       -0.0008386984
 N         -0.6675777295        1.3531249051       -0.0004622746
 C          0.4792184746        0.6843998993        0.0002021209
 C          1.7280959251        1.5069322323        0.0007868020
 H          2.4245991966       -1.1713831772        0.8783398350
 H          1.6840602530       -2.5153420790       -0.0022129798
 H          2.4241357001       -1.1693233145       -0.8799708630
 H         -0.6747658199       -2.4870635158        0.0015022444
 H         -2.8164438448       -1.2154105001        0.0013981602
 H         -2.7039500139        1.2827713340       -0.0013469474
 H          2.3276935279        1.2838911998        0.8812496324
 H          2.3276846423        1.2857884496       -0.8801397241
 H          1.4656534751        2.5599059807        0.0019168325
  17
  -22.4989914200000       0.103452111198050      !gc
 C          1.8415387876       -1.4400788937       -0.0002536341
 C          0.5328842105       -0.7174365022        0.0002155877
 C         -0.6716376354       -1.4059312948        0.0001474832
 C         -1.8670954349       -0.7038640238       -0.0000165018
 C         -1.8064629757        0.6781450808       -0.0001502421
 N         -0.6675639954        1.3531122094        0.0000277691
 C          0.4791908560        0.6843751998        0.0002160133
 C          1.7280994538        1.5069360891       -0.0000133432
 H          2.4263269804       -1.1677362528        0.8767881883
 H          1.6841337166       -2.5153363668        0.0032071633
 H          2.4224375323       -1.1728620946       -0.8814954757
 H         -0.6748845806       -2.4870358254        0.0002250902
 H         -2.8163638280       -1.2155545363        0.0000388602
 H         -2.7039242209        1.2828646041       -0.0002042738
 H          1.4655898562        2.5599289783        0.0025142744
 H          2.3292537290        1.2829661536        0.8791115515
 H          2.3259681525        1.2867109228       -0.8823035529
  17
  -22.4989912800000       0.103436786184499      !gc
 C          1.8414829282       -1.4402179057       -0.0000563745
 C          0.5329177230       -0.7174231083       -0.0000529522
 C         -0.6716414847       -1.4059072946        0.0000455511
 C         -1.8670765797       -0.7038802680       -0.0000317475
 C         -1.8064238386        0.6781557166       -0.0000356558
 N         -0.6675577097        1.3530746434        0.0000213766
 C          0.4792678806        0.6843394219        0.0000562274
 C          1.7280410134        1.5071068051       -0.0000272947
 H          2.4278965504       -1.1647344957       -0.8750770962
 H          2.4206550317       -1.1760920930        0.8833024629
 H          1.6840266137       -2.5154837857       -0.0073362043
 H         -0.6748081905       -2.4870255712       -0.0001517734
 H         -2.8162885533       -1.2156492720        0.0000936211
 H         -2.7038593833        1.2829167579        0.0002182812
 H          2.3266578759        1.2865606466       -0.8818216439
 H          1.4651426186        2.5600111209        0.0019266456
 H          2.3284270476        1.2836340890        0.8797670910
  17
  -22.4989912500000       0.103433502548530      !gc
 C          1.8415276964       -1.4401036377        0.0003718228
 C          0.5329008538       -0.7174614859       -0.0002542780
 C         -0.6716087854       -1.4059160087       -0.0002258613
 C         -1.8671056535       -0.7038326548       -0.0000577152
 C         -1.8064910636        0.6781253290        0.0002516385
 N         -0.6675452004        1.3530917786        0.0001646195
 C          0.4791850282        0.6843905234       -0.0001513832
 C          1.7280990784        1.5069613992       -0.0001429969
 H          1.6841112228       -2.5153693064       -0.0064635205
 H          2.4279827115       -1.1650702633       -0.8746316360
 H          2.4207269307       -1.1756316860        0.8835463119
 H         -0.6749286902       -2.4870273131       -0.0005388641
 H         -2.8163369885       -1.2155980305       -0.0005280948
 H         -2.7038807359        1.2829179865       -0.0001118387
 H          2.3305805934        1.2807389436        0.8773936420
 H          2.3246260367        1.2891279015       -0.8840451513
 H          1.4655155130        2.5599290431        0.0055793712
  17
  -22.4989911800000       0.103425841136514      !md3
 C          1.8415762900       -1.4400508370       -0.0004566227
 C          0.5328976554       -0.7174460409        0.0001582011
 C         -0.6716325942       -1.4059031195        0.0003792491
 C         -1.8671167684       -0.7038249641        0.0001038200
 C         -1.8065068174        0.6781339707       -0.0003528133
 N         -0.6675559228        1.3530722715       -0.0000548255
 C          0.4791901091        0.6843887683        0.0002569864
 C          1.7281136160        1.5069000624        0.0001843172
 H          2.4249880184       -1.1681674742       -0.8785954671
 H          2.4236710821       -1.1725378403        0.8798432823
 H          1.6840658217       -2.5152822251       -0.0033741412
 H         -0.6750156668       -2.4870254798        0.0005633416
 H         -2.8163103081       -1.2156240661        0.0001743034
 H         -2.7038840787        1.2830517280       -0.0011284372
 H          2.3319607426        1.2786914975        0.8763153011
 H          2.3232299244        1.2909095075       -0.8849616994
 H          1.4656692263        2.5598630701        0.0086704782
  17
  -22.4972904100000       1.710051884020137E-002 !mtd3
 C          1.8278627841       -1.4808923438       -0.0014087319
 C          0.5423086545       -0.7108112319        0.0007192164
 C         -0.6646604250       -1.4006993831        0.0010929174
 C         -1.8619641153       -0.7057582053        0.0002928435
 C         -1.8034053692        0.6772213820       -0.0008192751
 N         -0.6660111679        1.3514663515       -0.0004663971
 C          0.4867059161        0.6888165471        0.0003027032
 C          1.7185129042        1.5421300584        0.0008348834
 H          2.6925249975       -0.8280540918        0.0288943539
 H          1.8607687994       -2.1460696443        0.8600054142
 H          1.8862261642       -2.0963302406       -0.8980212406
 H         -0.6604943751       -2.4817581893        0.0022442187
 H         -2.8096117494       -1.2204323978        0.0003404201
 H         -2.7013483294        1.2813111199       -0.0024829190
 H          1.4212466298        2.5859799107        0.0042727060
 H          2.3223340387        1.3419911177        0.8835252309
 H          2.3199298429        1.3464999287       -0.8843870328
  17
  -22.4972876700000       1.705100848587264E-002 !mtd1
 C          1.8278708637       -1.4808535765       -0.0003680689
 C          0.5423106429       -0.7108070162       -0.0003894134
 C         -0.6646414893       -1.4007518676        0.0003176963
 C         -1.8619437924       -0.7057600836        0.0005623958
 C         -1.8034291525        0.6772422001       -0.0002576899
 N         -0.6660383329        1.3515126137       -0.0005449255
 C          0.4866852940        0.6887969767       -0.0003359617
 C          1.7185462715        1.5420699466        0.0008148630
 H          2.6925924216       -0.8275861003       -0.0099184012
 H          1.8778468920       -2.1140991540        0.8840729874
 H          1.8690175613       -2.1286154429       -0.8746348678
 H         -0.6605412052       -2.4818114267        0.0006260717
 H         -2.8096806093       -1.2202625034        0.0009555084
 H         -2.7014577468        1.2812014237       -0.0011873140
 H          2.3221956340        1.3444193723       -0.8825589427
 H          1.4212595570        2.5859624530        0.0006882679
 H          2.3202647451        1.3441230743        0.8854322052
  17
  -22.4969139800000       1.148190732515933E-002 !gc
 C          1.8337650367       -1.4734142825       -0.0001959407
 C          0.5398251690       -0.7187376591        0.0001637876
 C         -0.6693300372       -1.4032083496        0.0001342892
 C         -1.8649939144       -0.7041810043       -0.0000526328
 C         -1.8020542319        0.6782839982       -0.0001804645
 N         -0.6626811539        1.3480934335        0.0001095722
 C          0.4883566959        0.6822845900        0.0002990857
 C          1.7158511438        1.5418932597       -0.0001250843
 H          1.6434842951       -2.5436131545       -0.0026215727
 H          2.4224498173       -1.2248452537       -0.8813988006
 H          2.4205159572       -1.2287492670        0.8834539749
 H         -0.6733171452       -2.4843628052        0.0001309482
 H         -2.8139155935       -1.2163900478        0.0000548008
 H         -2.6978821763        1.2855578952        0.0000895020
 H          1.6968953940        2.1946361260        0.8696594465
 H          2.6258087188        0.9543672688        0.0110989988
 H          1.7082180574        2.1778559812       -0.8825029169
  17
  -22.4969137700000       1.147935608867220E-002 !gc
 C          1.8337901028       -1.4734003014       -0.0000137645
 C          0.5398090184       -0.7187927775        0.0001116866
 C         -0.6693358929       -1.4032200038        0.0000033051
 C         -1.8650047584       -0.7041492662       -0.0001145358
 C         -1.8020522552        0.6782890905       -0.0000217177
 N         -0.6626331745        1.3480792955        0.0001657231
 C          0.4883630906        0.6822416687        0.0002082991
 C          1.7158095850        1.5419374379       -0.0002074587
 H          1.6435576347       -2.5436170437       -0.0017263394
 H          2.4222948249       -1.2253817179       -0.8814968873
 H          2.4206940426       -1.2281025913        0.8833510710
 H         -0.6733867708       -2.4843715587       -0.0001413418
 H         -2.8139459818       -1.2163272890       -0.0001796089
 H         -2.6978607735        1.2855945814        0.0002294354
 H          2.6258838645        0.9545033668        0.0086233841
 H          1.7068043453        2.1795247352       -0.8813900004
 H          1.6980376278        2.1930059605        0.8708346360
  17
  -22.4969134400000       1.147534814804068E-002 !mtd2
 C          1.8337965321       -1.4733769234       -0.0009720798
 C          0.5397876440       -0.7187801585       -0.0000839021
 C         -0.6693390375       -1.4031947689        0.0007971555
 C         -1.8650345621       -0.7041650248        0.0006313915
 C         -1.8020225696        0.6782370177       -0.0006227456
 N         -0.6626325235        1.3480844121       -0.0007269712
 C          0.4883543950        0.6822766142       -0.0002216474
 C          1.7158444090        1.5418968139        0.0011406067
 H          2.4206719520       -1.2267638517       -0.8838557811
 H          2.4223172630       -1.2269018805        0.8808234010
 H          1.6434497462       -2.5434065537       -0.0008975988
 H         -0.6734042737       -2.4842823048        0.0012671923
 H         -2.8140151370       -1.2161790181        0.0010759788
 H         -2.6978714524        1.2854540743       -0.0015788590
 H          2.6258876971        0.9544275689       -0.0045804029
 H          1.7000067687        2.1913311485       -0.8711884709
 H          1.7049328122        2.1812244714        0.8810674548
