! pbe def2-sv(p) def2/J RI DEFGRID1 loosescf d4 GCP(DFT/SV(P)) printgap
%output
    printlevel normal
end
* xyz 0 1
C 5.054130334 -0.2084394215 -1.3143733404
C 4.4257544151 -1.5622786845 -1.028960563
O 3.06227865 -1.5516961795 -1.4989621122
C 2.0781180539 -1.7322684699 -0.6508442409
O 2.2040428405 -1.9934989161 0.5270344978
C 0.7326200869 -1.4958144041 -1.3132598769
C 0.47138851 0.0170053495 -1.2677041445
H 1.0891359905 0.5500225244 -1.9911291728
C 0.7347057907 0.5292831479 0.1308379025
O -0.0463570148 0.3135249342 1.0378776776
O 1.8480393373 1.1980852733 0.2305343566
C 2.2279576259 1.7189186264 1.5274002456
C 3.1862189974 0.7690143559 2.2259278067
S -1.2641321105 0.3943978107 -1.6696416216
P -2.3350885787 0.2925380278 0.1801239066
S -2.4098380335 1.8175519205 1.4268020386
O -3.7802849933 0.090907547 -0.4929323568
C -4.4595600778 1.1538827964 -1.1630198211
O -2.2453380663 -1.1943655854 0.7353114926
C -1.8466793301 -1.5351169492 2.0647433846
H 4.4929280268 0.5784960243 -0.8162458194
H 6.0771690511 -0.204007947 -0.9530541442
H 5.0509383839 -0.0149164476 -2.3828121392
H 4.4245202448 -1.7935051518 0.0397651011
H 4.9322514531 -2.3573912068 -1.5792740255
H -0.0392819485 -2.022396577 -0.7499591825
H 0.7450412795 -1.8317491152 -2.347962508
H 2.6991725353 2.6776611666 1.3091617926
H 1.319405016 1.867857659 2.117068457
H 2.74407229 -0.2231028217 2.2989605823
H 4.12057528 0.6962114887 1.6767823423
H 3.3880015937 1.1396119677 3.2252522978
H -4.4048589562 2.0681927544 -0.5681480129
H -5.4920095259 0.8275072002 -1.260239181
H -4.0163861018 1.321969394 -2.1448826011
H -2.5405405848 -2.3005918736 2.4048554139
H -1.895145561 -0.6600154777 2.7147956086
H -0.8257699566 -1.916974963 2.0475874194
*
