! pbe def2-sv(p) def2/J RI DEFGRID1 loosescf d4 GCP(DFT/SV(P)) printgap
%output
    printlevel normal
end
* xyz 0 1
C 4.0084477422 -1.0542252509 -2.8348762456
C 4.487345861 -0.5959065254 -1.4737931238
O 3.6062013462 0.3683389321 -0.8653980218
P 2.0477955655 0.1730997639 -0.6245756796
S 0.8508923445 0.4229500365 -2.1527090904
O 1.7691279498 1.2762470172 0.4617176166
C 2.4605505048 1.3600592678 1.7340186936
C 1.5307342346 0.9510808179 2.8588635632
S 1.950489071 -1.7375441001 0.3020218642
C 0.2111084607 -2.1029425781 -0.0248931617
S -0.9248434433 -1.4804116427 1.2566858192
P -1.9967032015 0.0920851286 0.3321927148
S -1.3588200566 1.950986998 0.3932634497
O -3.4302900537 -0.074342966 1.0070406235
C -3.7945422468 0.6122475126 2.2129729858
C -3.0789919941 0.0381700025 3.4190176718
O -2.2269430869 -0.5632726474 -1.0903291432
C -2.6495893653 0.2080443848 -2.2313297497
C -4.0556856063 0.7410325511 -2.0629513309
H 3.0667858485 -1.5932319706 -2.741278122
H 3.8496237596 -0.200173353 -3.4892417868
H 4.7511319597 -1.7118452433 -3.2748024583
H 5.4371772318 -0.0628787065 -1.543322062
H 4.5847430018 -1.4448880306 -0.79180811
H 3.353324988 0.7314639191 1.7000248844
H 2.7492106196 2.4085422226 1.821236672
H 1.2837673441 -0.1067966649 2.7948400691
H 2.0149853329 1.146029923 3.81008739
H 0.6117142672 1.5302783838 2.7988150223
H 0.1190968744 -3.185527264 -0.0194090683
H -0.0666772916 -1.6802204751 -0.9920265396
H -3.5570384146 1.6748542247 2.0919582422
H -4.8747620602 0.4771500347 2.2804788223
H -2.0057660049 0.20309949 3.3226771201
H -3.43334972 0.5296586687 4.3192198496
H -3.259867673 -1.030916501 3.4923493976
H -1.9338363033 1.0227644757 -2.383978103
H -2.573534354 -0.4954694067 -3.0616340941
H -4.0794799034 1.4734921636 -1.2568702401
H -4.3685421848 1.2207482887 -2.9849938608
H -4.737574138 -0.0706445163 -1.8233178189
*
