! pbe def2-sv(p) def2/J RI DEFGRID1 loosescf d4 GCP(DFT/SV(P)) printgap
%output
    printlevel normal
end
* xyz 0 1
C 5.6000336093 0.7111665843 -0.23841175
C 4.3361821813 1.2532857829 -0.8776988104
O 3.3386454125 0.218965918 -1.0127652655
P 2.2351400512 -0.0552211164 0.0941514231
S 2.8613069652 -0.4054574313 1.921530126
O 1.4016235271 -1.213532791 -0.5835043037
C 1.5872096424 -2.6014273528 -0.2469315194
C 2.9225973347 -3.1139832773 -0.7409317879
S 0.9365621257 1.5955772441 -0.1230491024
C 0.0463081354 1.3627052462 1.4394036481
S -0.8699721696 -0.2043967073 1.5235606222
P -2.0724986056 -0.0344452655 -0.219097254
S -1.4093422257 -0.4982751619 -1.9959075767
O -2.5472377259 1.4796260414 -0.0232480408
C -2.9870740433 2.2805567676 -1.1377120842
C -4.3729160854 1.8704152667 -1.5915791737
O -3.2921824647 -0.9809422467 0.1400131434
C -4.0987947754 -0.814317139 1.3341082445
C -5.5093526924 -1.2638989028 1.0119411027
H 5.9819819643 -0.1254963482 -0.8168272083
H 6.3481495904 1.4965772446 -0.2062433647
H 5.3963105086 0.3740838376 0.7755669544
H 4.5191283253 1.5880414796 -1.9004733335
H 3.9220882323 2.0795950186 -0.2925646169
H 1.5029418284 -2.7092069573 0.8400840364
H 0.7484670201 -3.1013286831 -0.7347956775
H 3.0177528739 -2.9370950763 -1.8091072762
H 3.7274928412 -2.5927224461 -0.2232728246
H 2.9991439188 -4.1775839579 -0.5385728106
H -0.6412381954 2.1977700273 1.5403538338
H 0.7592495975 1.3283776663 2.2641004585
H -2.9665727866 3.302675684 -0.7573662157
H -2.2646301391 2.171482315 -1.9525272948
H -4.689621499 2.511930306 -2.4077640644
H -4.3511309358 0.8382923104 -1.9411029899
H -5.0814750763 1.9552606399 -0.771557097
H -3.6517490142 -1.4295811188 2.1180688674
H -4.0706293741 0.2349719644 1.6379468306
H -5.9365364021 -0.6412813892 0.2306485963
H -5.4993678334 -2.2942899601 0.6684482877
H -6.11939918 -1.1886485598 1.9063240926
*
