! r2scan-3c def2/J RI DEFGRID2 scfconv6 printgap
%output
    printlevel normal
end
%cpcm
    smd true
    smdsolvent "water"
end
* xyz 0 1
C 3.7743612454 -1.4576446122 -2.5539578933
C 4.0661185175 -1.7411480613 -1.0944846402
O 2.8763352261 -1.7060142192 -0.2873576715
P 2.0769724897 -0.3642810561 0.001988805
S 3.1816742438 1.2334837716 0.2894273551
O 1.149772316 -0.809907426 1.2057012933
C 1.4718579258 -0.5235737926 2.5793532537
C 2.6537868803 -1.34152028 3.0552846341
S 0.6462495153 -0.2699530168 -1.5531361939
C 0.1313062111 1.439427231 -1.2433111719
S -0.6194277027 1.6634073957 0.3888070422
P -2.3091872977 0.4209288113 0.0458012636
S -3.0515490578 0.4833786215 -1.7719593277
O -3.2623073837 0.7968698336 1.2548711684
C -3.6115584261 2.1339456385 1.6591691961
C -4.1985928824 2.9548879153 0.5293586003
O -1.9101722959 -1.0304461411 0.5379892735
C -2.0288249802 -2.2243606762 -0.2661363443
C -0.9465738071 -3.201863023 0.1430012073
H 4.6764913294 -1.6115540859 -3.1373442686
H 2.9907407076 -2.1169738403 -2.9188539299
H 3.4475154732 -0.4256698698 -2.6758093617
H 4.7758225393 -1.0091652191 -0.6958203578
H 4.4513144712 -2.7511893503 -0.9487129228
H 1.6761732903 0.5483358063 2.6727516531
H 0.5569777126 -0.7715041894 3.1197009108
H 3.5488376065 -1.0468107674 2.5082556814
H 2.8129609753 -1.1635617822 4.1141473941
H 2.4716792376 -2.3996810569 2.8873947045
H -0.5949387437 1.6879734941 -2.0172010754
H 0.9983382971 2.0982661106 -1.2793223993
H -4.3389389974 1.9765000927 2.4576376122
H -2.7163860999 2.6149921894 2.0637442749
H -5.0419245429 2.4343493847 0.0816700922
H -4.5309876964 3.9131084712 0.9154822135
H -3.4489639561 3.1242121819 -0.2423634077
H -3.0229273578 -2.6389184205 -0.0816454819
H -1.947867635 -1.9551577783 -1.3246414331
H -1.0286888697 -3.4233525409 1.2030678207
H -1.0659681133 -4.1164417229 -0.4286835482
H 0.0386602407 -2.7854531754 -0.0523230164
*
