! pbe def2-sv(p) def2/J RI DEFGRID1 loosescf d4 GCP(DFT/SV(P)) printgap
%output
    printlevel normal
end
* xyz 0 1
C 0.0081258822 -1.378413598 3.0732941567
C 1.2979146865 -1.4935864394 2.2877200067
O 1.5388577191 -0.2430846345 1.6061281977
P 2.318796762 -0.1094595265 0.2343282764
S 3.026681013 -1.8040477683 -0.4629848643
O 3.3514972577 1.0023012032 0.6901083426
C 4.0639519609 1.8925359072 -0.1891606758
C 4.842084002 1.159742643 -1.2625481426
S 1.0383141582 0.9635870937 -1.0808749095
C 0.246694218 -0.4854885149 -1.823864312
S -0.7218969455 -1.4400204957 -0.6307578873
P -2.104129134 0.107178157 -0.1744993328
S -2.6644079314 1.2313837678 -1.6849821649
O -1.3984730696 0.8895092136 1.0079634708
C -1.4229482076 2.3208113266 1.13438079
C -2.7267210009 2.779002093 1.7535646654
O -3.2245684144 -0.6494574322 0.6546952345
C -3.9101150181 -1.8468657668 0.2440328329
C -4.5563771847 -1.7176729841 -1.1198234231
H -0.163205591 -2.3077989882 3.6064448145
H 0.0780201532 -0.5599719194 3.7836702709
H -0.8291037382 -1.1891527668 2.4059474241
H 1.2495187276 -2.3021172489 1.5506360533
H 2.1485329179 -1.6703421869 2.9504059714
H 3.3432532291 2.583499751 -0.6357950734
H 4.7288292212 2.4368314206 0.4839308167
H 4.159773503 0.6473649351 -1.9393339373
H 5.4328726645 1.872298015 -1.829105377
H 5.5015555365 0.4205223182 -0.8140472137
H 1.0084571918 -1.1596583969 -2.2153084161
H -0.4055261335 -0.1112685597 -2.6126594641
H -0.5636083036 2.5509613842 1.766319668
H -1.282158673 2.7695490955 0.1449949201
H -3.5538727089 2.5142777153 1.0958310136
H -2.8763333773 2.2971241729 2.7156974873
H -2.7072632433 3.856200098 1.88446044
H -3.1926359891 -2.6724537296 0.2554476682
H -4.6562132235 -1.9944178502 1.0269513057
H -5.1349657434 -2.6114565908 -1.3301116147
H -5.211151578 -0.8499004935 -1.1492453103
H -3.7940036187 -1.6004309173 -1.8887864171
*
