! r2scan-3c def2/J RI DEFGRID2 scfconv6 printgap
%output
    printlevel normal
end
%cpcm
    smd true
    smdsolvent "water"
end
* xyz 0 1
C 1.2641788833 -0.701794344 -6.025e-07
C -6.253e-06 0.1030989048 1.394e-07
C -9.36253e-05 1.4263362721 -1.7729e-06
C -1.2640876965 -0.7019482731 4.822e-07
H 1.299749791 -1.3433736433 0.8793435691
H 1.2996313782 -1.3435735639 -0.8792030567
H 2.1393093643 -0.0579868302 -0.0001276519
H -0.9140980259 1.9962668256 8.2716e-06
H 0.9138347522 1.9963854831 5.5756e-06
H -1.2994562136 -1.3437189779 0.8792134984
H -2.1392895533 -0.0582385646 0.0001302932
H -1.2995779239 -1.3435274775 -0.879349602
*
