  17
        -22.02390302
 C         -1.8426988815       -0.0002722605        0.0818136401
 C         -1.0585037184        1.2493352522       -0.3005980504
 C          0.3072374445        1.2644916044        0.3955362452
 C          1.0665496958        0.0000797796        0.1001603324
 O          2.1990670586        0.0000425772       -0.3440433549
 C          0.3073305377       -1.2643089031        0.3959803629
 C         -1.0579593415       -1.2494084585       -0.3010101617
 H         -2.8053967961       -0.0003465223       -0.4309906724
 H         -2.0319876682       -0.0005147792        1.1567443256
 H         -0.9083745969        1.2703205106       -1.3821305833
 H         -1.6115746006        2.1465917172       -0.0209291059
 H          0.8989202429        2.1247005609        0.0791529884
 H          0.1584954091        1.3204442333        1.4758292899
 H          0.8992607481       -2.1246313817        0.0804640921
 H          0.1578537262       -1.3195637619        1.4762208627
 H         -0.9071692080       -1.2696428891       -1.3824606591
 H         -1.6108803668       -2.1470446288       -0.0222268354
