! pbe def2-sv(p) def2/J RI DEFGRID1 loosescf d4 GCP(DFT/SV(P)) printgap
%output
    printlevel normal
end
* xyz 0 1
C 3.5958709538 -1.6945982551 -2.5995218011
C 3.9896446544 -0.2797786861 -2.2291635173
O 3.597321593 0.0622330399 -0.8873377225
P 2.0771126121 0.1498614066 -0.4279363539
S 0.8800809037 0.992797116 -1.7261349629
O 2.1761156914 0.9795072432 0.9057645382
C 3.0695757453 0.6412736721 1.9987699168
C 2.6071969655 1.4093970957 3.219172946
S 1.6690551625 -1.8468372303 0.1737952004
C 0.0365422143 -1.6196552517 0.9264375537
S -1.3133726807 -1.4307381406 -0.279434648
P -2.0385463016 0.4962646242 0.2664479232
S -1.0092655105 1.4596117861 1.6245405422
O -3.5571871437 0.2569202016 0.6984526619
C -3.9587053436 -0.0659031521 2.0379565403
C -3.4950941978 -1.4438321088 2.4673134898
O -2.2385530911 1.3187346503 -1.0576915743
C -2.5642853449 0.7971557031 -2.3669159162
C -3.7987749618 -0.0769114698 -2.3589730796
H 4.0215057417 -1.9430279061 -3.5664056894
H 3.9575219274 -2.3970401824 -1.8526686048
H 2.5112723185 -1.7736300305 -2.6616511588
H 3.5316454678 0.4397355188 -2.9148680366
H 5.0726891671 -0.1492713012 -2.2214077916
H 3.0282501249 -0.4397072224 2.1618850436
H 4.0813423418 0.9223057918 1.7006884855
H 3.2228186084 1.1358564065 4.0696030023
H 2.687047135 2.4778767659 3.0407756307
H 1.5657817195 1.1807829883 3.4334455137
H 0.0467693329 -0.7331337583 1.5687200097
H -0.1464061439 -2.5284513156 1.4938059695
H -3.5626233023 0.70060231 2.7120737982
H -5.0472001754 -0.0011849874 2.0035253517
H -3.7754237889 -2.1862915464 1.7246466242
H -2.4131850888 -1.4501535043 2.5877275338
H -3.9545268951 -1.6938044765 3.4182014857
H -2.7074105431 1.7006657247 -2.961408038
H -1.6898282525 0.2564820064 -2.7400437228
H -4.6383241034 0.4633566107 -1.9292742579
H -4.0346302057 -0.3616964198 -3.3795595212
H -3.6195534826 -0.9771288241 -1.7730866063
*
