! wb97x-v def2-tzvp def2/J RIJCOSX DEFGRID2 scfconv7 GCP(DFT/TZ) printgap
%output
    printlevel normal
end
* xyz 0 1
C -0.7276831866159368 -1.8241034572700336 -4.873465600084663e-05
C 0.6047381776235505 -1.4340628444933181 -0.00016525240937987392
C 0.8996122333108307 -0.06327755455126587 -0.0002961829236574687
C -0.1113994719293613 0.9037571603861085 -0.00012119786414791308
C -1.4378001015047852 0.48288873854288805 8.125890229876426e-06
C -1.7481736772005185 -0.8791331616126268 -1.2174467225734197e-05
O -2.4019769178636547 1.4544211860358733 3.979944052568924e-05
C 2.2576880025005566 0.3568927371036236 -0.0004365502294572633
N 3.3688628597409798 0.6930308652894508 0.0006947686656138679
H -0.9793738603390716 -2.879175743534525 -4.836582931712221e-05
H 1.4061754421825667 -2.163005100755061 -0.00021314157682104215
H 0.1289722255849656 1.9606778971442258 -0.00014472998826945812
H -2.7886999720585988 -1.190988640420665 -1.4572139125889718e-05
H -3.2770331648669364 1.040073301963307 5.9441196365312535e-05
*
