! r2scan-3c def2/J RI DEFGRID2 scfconv6 printgap
%output
    printlevel normal
end
* xyz 0 1
C 0.6350900761 1.6977323399 -0.0419145703
C 1.3972674773 0.3939369134 -0.2866672324
H 1.5763820204 0.2760040577 -1.3691044952
C 0.5382308409 -0.7862301 0.2050074473
H 0.3753273422 -0.6798145131 1.2840889356
C -0.8132426365 -0.7414600927 -0.5215929756
H -0.6499932653 -0.8472759359 -1.6003627246
C -1.4670864511 0.6333382221 -0.2637365132
H -2.3647758356 0.7298413986 -0.8912314264
O -0.6349641353 1.6890013416 -0.6750454709
O -1.7846071912 0.69486929 1.0910964964
O -1.6690138219 -1.7874796289 -0.1581111989
O 1.2180302144 -2.0077681948 0.0459033628
O 2.6226059593 0.456016913 0.3983655543
H 1.1729134386 2.5438893235 -0.4671464744
H 0.5282443181 1.8397898148 1.03971279
H -2.3193924932 1.4809107474 1.2776703977
H -1.9253675794 -1.6748238604 0.7703904438
H 1.1291179671 -2.3213027094 -0.8652016377
H 2.9545063781 -0.450092253 0.5056027849
*
