! pbe def2-sv(p) def2/J RI DEFGRID1 loosescf d4 GCP(DFT/SV(P)) printgap
%output
    printlevel normal
end
* xyz 0 1
C 4.2786453258 -2.1847343033 -1.2029468177
C 4.4301123782 -0.7525982857 -0.7297834359
O 3.375381418 0.0775984848 -1.2874041567
P 2.1891866189 0.6868564791 -0.4501228298
S 1.1280507211 1.8773461483 -1.579016505
O 2.9604442097 1.3497395329 0.7680497476
C 2.3575194107 2.1509669895 1.8007762907
C 2.0890316814 1.3178299235 3.0381671933
S 1.2305896072 -1.0155799672 0.4166404379
C 0.4608349986 -1.6253157722 -1.0987925286
S -1.1097774824 -0.8054764139 -1.5664168217
P -1.8738906882 -0.1762020744 0.3309346655
S -1.1160365876 1.3807257236 1.2417681373
O -1.8765423084 -1.4498004202 1.2492480604
C -2.5299814003 -2.7005818502 0.9050126329
C -3.9042814077 -2.7718522123 1.5374800455
O -3.4039410045 0.0136024174 -0.0581647084
C -3.8454456134 1.1378603817 -0.8432657374
C -5.3462408646 1.2614027066 -0.6769313094
H 4.2056779946 -2.2123636113 -2.2866564822
H 5.1506637263 -2.7507411819 -0.8910032988
H 3.389858071 -2.6391579563 -0.7727548198
H 5.3542748097 -0.307382906 -1.1009295709
H 4.4020533431 -0.6846668014 0.3588297318
H 3.0898933754 2.9351864599 2.0009289179
H 1.4348718418 2.600737888 1.4216852132
H 3.0002219929 0.8247373986 3.3646534824
H 1.7245864989 1.9680403814 3.8266229295
H 1.3288873337 0.5666091903 2.8325005426
H 0.2614161122 -2.6829620813 -0.943181788
H 1.1358485689 -1.4709843339 -1.9405129211
H -2.5931439268 -2.7819683584 -0.1833757526
H -1.8664129178 -3.4694541587 1.3046106128
H -3.8263763589 -2.6412570717 2.6132044492
H -4.5436724976 -1.9903350924 1.1358307968
H -4.3437301793 -3.741190962 1.3236949037
H -3.3255727324 2.0363616822 -0.4928573086
H -3.5698247242 0.9557212406 -1.8860531874
H -5.8336491368 0.3517098025 -1.0153585993
H -5.5920981334 1.429248181 0.367935775
H -5.7000945211 2.1000416008 -1.267363976
*
