! pbe def2-sv(p) def2/J RI DEFGRID1 loosescf d4 GCP(DFT/SV(P)) printgap
%output
    printlevel normal
end
* xyz 0 1
C 3.6316005733 -2.9358205742 0.3361490906
C 3.0212899098 -1.6315713209 0.8230582688
O 2.6999911505 -0.7650165667 -0.2822725573
C 1.5864770242 -0.9731098291 -0.9484695112
O 0.7723501589 -1.8381576309 -0.6929379375
C 1.4127679285 0.0137516001 -2.0851811835
C 0.2158327491 0.9317955521 -1.8208083894
H 0.0646112924 1.5837902396 -2.6863884721
C 0.4053640273 1.8020536545 -0.5925348464
O -0.4779745168 1.9656555921 0.2279863643
O 1.5894377042 2.343355249 -0.5502848324
C 1.9551787702 3.1346122727 0.6016299989
C 2.6222630143 2.2552938311 1.6457274434
S -1.3603744475 0.0273439059 -1.6490200167
P -1.6698400429 -0.2411616783 0.4473808721
S -0.3109246478 -0.4310243558 1.8477942876
O -2.7854469293 0.7892933384 0.8993669394
C -3.997783953 1.0203262676 0.162279075
O -2.6103433657 -1.5456730493 0.3487554419
C -2.1594733445 -2.8722517649 0.0520944558
H 3.9235378218 -3.5322893078 1.193896494
H 2.9050119385 -3.4944549381 -0.2493223408
H 4.5056468126 -2.7344530335 -0.2772237299
H 3.7307430222 -1.0570397944 1.4181495434
H 2.1108364224 -1.8101898639 1.4028581313
H 1.2205796633 -0.5488392411 -2.999284678
H 2.3158517562 0.6147991398 -2.1823050045
H 2.6435504747 3.8824164287 0.2078518339
H 1.0563137147 3.6083099975 1.0042402838
H 3.4846680865 1.7549653598 1.2144659478
H 2.9397778887 2.8678947763 2.4826150615
H 1.9231225893 1.5016837956 2.0068899833
H -4.5893973706 0.107038219 0.1235732637
H -3.7637926328 1.3587471466 -0.8472378716
H -4.5184095061 1.7967864074 0.7168265018
H -1.1230752885 -2.8713867279 -0.2786568025
H -2.806332042 -3.2563909323 -0.7343202578
H -2.2554797543 -3.4703798526 0.9569692714
*
