! r2scan-3c def2/J RI DEFGRID2 scfconv6 printgap
%output
    printlevel normal
end
%cpcm
    smd true
    smdsolvent "water"
end
* xyz 0 1
C 3.8487453169 -0.2678989757 -2.8033522904
C 4.3701069385 -0.8591809571 -1.5083313469
O 3.3164854467 -1.0608625146 -0.5504246989
P 2.6588811109 0.1581515696 0.2193445374
S 3.8288071168 1.6753584082 0.6178402242
O 2.1040982925 -0.7019824937 1.4308345421
C 1.4307169536 -0.0719394533 2.5381549062
C 2.3946520537 0.1750969335 3.681589221
S 0.9112180026 0.6774191074 -0.8927456674
C 0.1925025929 -0.9934304506 -0.9942913474
S -1.0397689771 -1.3129494625 0.2878917686
P -2.4992818484 0.0616892222 -0.4499335059
S -2.5781848212 0.2747897225 -2.3904119022
O -2.1801528545 1.4237621957 0.2807110578
C -2.1216301801 1.5751175987 1.7195482629
C -3.4468028025 2.0589921253 2.2715950055
O -3.845804626 -0.4068149988 0.2540680194
C -4.7226701791 -1.3870670807 -0.331877312
C -4.0791391194 -2.754686977 -0.4302807872
H 3.057377368 -0.888419248 -3.2164769527
H 3.4543360668 0.7320227841 -2.6232503739
H 4.6609605767 -0.2002343801 -3.519979514
H 5.1260596449 -0.2036150755 -1.0641581744
H 4.7858898128 -1.856557925 -1.6580582945
H 0.9787731505 0.8676653202 2.2013843808
H 0.6451212519 -0.7759661607 2.8215112153
H 2.8642152218 -0.7580791267 3.9784072589
H 3.169055235 0.874876504 3.3744996763
H 1.8528037717 0.5917352311 4.5244164911
H 0.97817205 -1.7362430022 -0.8778958923
H -0.2894343046 -1.0612226515 -1.9696450609
H -1.8348776052 0.6182003794 2.1654857674
H -1.3327027185 2.3129420813 1.8813308975
H -4.2190200512 1.3122375716 2.1093497652
H -3.3402375769 2.2404588686 3.3365676939
H -3.7405186903 2.981402214 1.7781805508
H -5.5854293064 -1.3953711033 0.335629541
H -5.0214614057 -1.0310602916 -1.3223662369
H -3.677028686 -3.056316857 0.5336212908
H -4.8228371338 -3.4761965594 -0.7530406199
H -3.2709681956 -2.734070815 -1.1597561791
*
