! r2scan-3c def2/J RI DEFGRID2 scfconv6 printgap
%output
    printlevel normal
end
* xyz 0 1
C 4.0394921365 -0.1728036532 -2.8871520952
C 4.1524677666 -1.5424255654 -2.2374924204
O 2.8797622705 -1.9291463717 -1.6837399488
C 2.6911022567 -1.8365102432 -0.3851817309
O 3.5358893189 -1.5280214964 0.4260445329
C 1.2564963186 -2.175653255 -0.0131325471
C 0.3546955064 -0.9968687593 -0.403060808
H 0.3134467029 -0.8944570921 -1.4902418007
C 0.9636622658 0.2673477649 0.1724416297
O 1.8784108348 0.837554819 -0.3788375603
O 0.4775879281 0.5946579075 1.3501341427
C 1.0931544541 1.7179228697 2.0133217992
C 0.4860834236 1.8571495616 3.3935288612
S -1.3221196688 -1.3158337438 0.233041025
P -2.1279786107 0.6434112499 0.0878584309
S -1.2134165227 1.8801033476 -1.1280325752
O -3.653217922 0.3498038479 -0.2945234603
C -4.0129650243 -0.1607129655 -1.5833689864
O -2.3085889528 1.2147457197 1.5467294964
C -3.0156787228 0.4716605092 2.5637653878
H 5.0111370773 0.1319827352 -3.2609721446
H 3.3299747174 -0.2029338448 -3.7090819835
H 3.6913211871 0.5549476319 -2.1563471155
H 4.8925105542 -1.5360050781 -1.4325403587
H 4.3934033335 -2.3137555566 -2.9704439772
H 1.203411589 -2.3436474339 1.0629846447
H 0.935457512 -3.066747978 -0.5511222837
H 2.1705504951 1.527112911 2.050830699
H 0.9204058636 2.6065552655 1.3969340627
H -0.5695591749 2.0949845521 3.3093134902
H 0.6043589391 0.9309675553 3.9477894269
H 0.992511469 2.658673074 3.9207119442
H -3.7170263902 -1.2065861462 -1.6623599882
H -3.5312884711 0.4254678989 -2.3674818341
H -5.093586657 -0.0616074475 -1.6457088931
H -2.9774582879 1.094488044 3.4534993237
H -2.517241717 -0.4817237361 2.7368700585
H -4.0450252891 0.3063827426 2.2533553688
*
