! pbe def2-sv(p) def2/J RI DEFGRID1 loosescf d4 GCP(DFT/SV(P)) printgap
%output
    printlevel normal
end
* xyz 0 1
C 4.8302878023 -1.0134658226 -1.1120647012
C 4.490417996 -0.7708691136 0.3437060616
O 3.485432174 0.2426353867 0.5311897331
P 2.0691811949 0.3102962305 -0.1894363947
S 2.0514837807 0.892030347 -2.0661454736
O 1.2902805913 1.2483120675 0.8242857775
C 1.2317490047 2.6756763165 0.6613182543
C 2.5732652383 3.3202844457 0.9338642286
S 1.264370968 -1.5855499152 0.239544235
C 0.0560401014 -1.7710607334 -1.117338872
S -1.6177657876 -2.0523059488 -0.5078515623
P -2.0240611297 -0.0760885651 0.1689182406
S -1.4323464915 1.3379186594 -1.0521663426
O -1.3885815838 0.1060494369 1.5948776745
C -1.3256786673 -0.8718378517 2.6659241309
C -2.6693907597 -1.4754259601 3.0090529026
O -3.5794251097 -0.1251730446 0.4776018933
C -4.5777844993 -0.2642188939 -0.5530221
C -5.094018854 1.0908594386 -0.9960998158
H 5.1193290787 -0.0836709181 -1.5962988891
H 5.6498200689 -1.7220173816 -1.1756900474
H 3.9678391929 -1.41886209 -1.639219716
H 5.3493570019 -0.3809305166 0.892994139
H 4.1353369211 -1.6907664894 0.8165710502
H 0.8874214417 2.8977662972 -0.3549622656
H 0.4679338908 2.9900429123 1.3744876452
H 2.9306384711 3.0389190904 1.9208230596
H 3.2954302486 2.9876567717 0.1889139056
H 2.4724760557 4.3994089514 0.8745385543
H 0.3249369135 -2.6549456084 -1.6896783951
H 0.0860427242 -0.8708325238 -1.738673582
H -0.6108718654 -1.6467479692 2.3740199302
H -0.9176487081 -0.2940825897 3.4967569902
H -2.5577856916 -2.0914421371 3.8962106776
H -3.3968022706 -0.6917681974 3.2037740593
H -3.0278160675 -2.0966306921 2.1910810266
H -4.1538733827 -0.8172954468 -1.3953209861
H -5.3687733461 -0.8565878096 -0.0892530303
H -5.4838265701 1.6396484122 -0.1433930058
H -4.2912527309 1.6708633355 -1.4465831633
H -5.8839301083 0.9520048524 -1.7271066554
*
