  6
        -14.37099774
 C         -0.6608424118        1.0343235206        0.0000754411
 C          0.6608365913        1.0343256143       -0.0000747056
 Cl         1.6110464897       -0.4056994864        0.0000164901
 Cl        -1.6110441732       -0.4057017312       -0.0000165866
 H         -1.2358986907        1.9448418939        0.0002772691
 H          1.2358865712        1.9448294888       -0.0002826396
