! pbe def2-sv(p) def2/J RI DEFGRID1 loosescf d4 GCP(DFT/SV(P)) printgap
%output
    printlevel normal
end
* xyz 0 1
C 4.0600647496 -0.2929272052 -2.4308365483
C 4.4208463399 -0.6417901557 -1.000844673
O 3.2531427168 -0.8186994487 -0.185320734
P 2.3448213148 0.4215034113 0.2606631377
S 3.3516183094 2.0710248853 0.5890016306
O 1.5210922101 -0.2235655061 1.4477084413
C 2.1257227925 -0.7956146373 2.6302029013
C 2.4097097675 0.2646394369 3.6749654396
S 0.7901424052 0.5822828556 -1.1591888161
C 0.1643085159 -1.1256285433 -1.0684387476
S -1.0392592764 -1.3732064541 0.2525827884
P -2.5264224655 -0.0648687327 -0.535767267
S -2.6568439912 -0.0762392355 -2.4895687308
O -2.2516962721 1.4146664793 -0.0569180771
C -2.4054133719 1.9423237138 1.2812848555
C -1.1908984118 1.6676774905 2.1453537997
O -3.8150410355 -0.4333163298 0.3174413665
C -4.3030532222 -1.7692070473 0.5495529583
C -4.5539249759 -2.5327215498 -0.7334216926
H 3.4013032548 -1.0462250381 -2.8555401599
H 3.5541554045 0.672164614 -2.4596495168
H 4.9653591833 -0.2316634449 -3.0260942452
H 5.0359483054 0.1486337622 -0.5586800909
H 4.9398247315 -1.5991906945 -0.9366133252
H 1.380564827 -1.512873732 2.9799201341
H 3.0380602807 -1.3228626407 2.3429854991
H 3.1341749543 0.9838153408 3.2981400032
H 1.4962881932 0.7948315424 3.93009672
H 2.8110075423 -0.2093658947 4.5651428134
H 0.9875003864 -1.8121130843 -0.8887075193
H -0.3199927492 -1.3130611117 -2.0271533815
H -2.5376607656 3.0130875308 1.1161441837
H -3.3096241898 1.5204424601 1.7232762604
H -1.0858478633 0.6026164781 2.3391997902
H -0.2878077508 2.023776426 1.6513280903
H -1.3049481664 2.1919296604 3.089351349
H -3.57620305 -2.2931896745 1.1760473245
H -5.2283919028 -1.6093796871 1.1059518701
H -3.6175206033 -2.691983426 -1.265667966
H -4.9975494045 -3.4949212722 -0.4989466732
H -5.2243414732 -1.9745398194 -1.3825610864
*
