! r2scan-3c def2/J RI DEFGRID2 scfconv6 printgap
%output
    printlevel normal
end
%cpcm
    smd true
    smdsolvent "water"
end
* xyz 0 1
C -0.6930920641 -0.5954126306 -0.3110794099
C 0.7077997233 -0.5882970948 0.3078170909
O 1.4781865348 0.505326964 -0.1386045147
O -1.4468891691 0.5311729537 0.0843133602
H -1.207115992 -1.5267033936 -0.0488842252
H -0.6108422484 -0.5282503545 -1.3980490767
H 1.2494026891 -1.4879789367 0.0112886814
H 0.6299073511 -0.5661973913 1.4047681767
H 0.9247924437 1.3001029202 -0.0944985516
H -1.65819668 0.461511205 1.0260321178
*
