! pbe def2-sv(p) def2/J RI DEFGRID1 loosescf d4 GCP(DFT/SV(P)) printgap
%output
    printlevel normal
end
* xyz 0 1
C 5.8855922815 -1.5836421403 -1.07692692
C 4.5588464385 -0.9060648612 -1.3530629301
O 3.8040196915 -0.8911626263 -0.1234475224
P 2.5753570191 0.0960361753 0.0685171642
S 2.9372613492 1.9860430237 -0.2786237058
O 2.1338866762 -0.1543184631 1.555457093
C 1.803794768 -1.4579979574 2.0991714601
C 3.0155497195 -2.1035565159 2.7384272036
S 1.0782223425 -0.7830739537 -1.1777758154
C 0.010551268 0.6717438066 -1.2515949206
S -0.9015884035 0.948106781 0.287606403
P -2.8750302672 0.4086536316 -0.375611311
S -3.0365989627 -0.2379815258 -2.2124821004
O -3.7169997164 1.7215033737 -0.1510177324
C -3.7316165192 2.5105781525 1.062421377
C -4.7613534512 1.9979564166 2.0481249275
O -3.4423021646 -0.5708497481 0.7427091134
C -3.2648113752 -1.9972904645 0.6776786236
C -1.8186526777 -2.4034334697 0.8746016766
H 6.4692974116 -1.6069867588 -1.991229951
H 6.4336109337 -1.0343841872 -0.3164774401
H 5.7208261735 -2.5996300336 -0.7304115191
H 3.9777402773 -1.4510036365 -2.1017294617
H 4.6985276665 0.1267984613 -1.6890597291
H 1.0286476149 -1.2467345246 2.8378897711
H 1.3981598328 -2.0828545611 1.2986043253
H 2.7158333826 -3.0404594444 3.1975475109
H 3.7785017878 -2.2980695014 1.9898929083
H 3.430183864 -1.447309835 3.4986108268
H -0.6994890783 0.5077270132 -2.0652002255
H 0.633437255 1.5490103255 -1.4296796193
H -2.7278847158 2.5057250509 1.4973512719
H -3.9777305539 3.5163840527 0.7170530858
H -4.8087328403 2.6777015782 2.8933015166
H -5.7373271388 1.9483411231 1.5729749189
H -4.4906855617 1.0065440991 2.39988405
H -3.9015754759 -2.3754812132 1.4787273879
H -3.6360530311 -2.3480312636 -0.2900723627
H -1.2218740967 -2.0884885327 0.0190274438
H -1.4200526175 -1.9454231028 1.7764477327
H -1.7580132288 -3.4833853446 0.9613512928
*
