! pbe def2-sv(p) def2/J RI DEFGRID1 loosescf d4 GCP(DFT/SV(P)) printgap
%output
    printlevel normal
end
* xyz 0 1
C 3.6904438105 -1.7021428044 -2.2993509532
C 4.0999448317 -0.3416296807 -1.7714011306
O 3.6239550188 -0.108360585 -0.4374363412
P 2.0807244546 0.0760284888 -0.078637837
S 1.0986716727 1.1021480578 -1.4332455494
O 2.2027535277 0.6417160982 1.3893683997
C 2.2694225047 2.0480211449 1.6955010186
C 3.4910482214 2.7114712244 1.0958038693
S 1.3931065405 -1.8725763583 0.3711326608
C 0.0509970089 -2.0414152313 -0.8557164865
S -1.6008322528 -2.2455245273 -0.1278894287
P -2.1044479047 -0.2491994186 0.2888589008
S -0.991507161 0.7982038807 1.5287591428
O -3.6177745282 -0.3735551839 0.7593563607
C -4.0002555421 -0.5517865695 2.1384827787
C -4.6118484707 0.7286262377 2.6733234566
O -2.2531231491 0.3094650053 -1.1794777199
C -2.4941062797 1.7114041749 -1.440817186
C -2.1968739383 1.9678445667 -2.9025491971
H 3.9617825447 -2.4792698375 -1.5893233964
H 2.6133980039 -1.7305319381 -2.4592287493
H 4.1910600456 -1.8851925493 -3.244707478
H 3.7162668704 0.4531560121 -2.4196993884
H 5.1835653617 -0.2554439879 -1.6806611207
H 1.3471281668 2.5196831735 1.3406812426
H 2.2853190734 2.0704393828 2.7860634416
H 4.3903689686 2.1798742191 1.3961035266
H 3.4228885611 2.7047568693 0.0082678035
H 3.5440156988 3.7397827933 1.4394392342
H 0.229638932 -2.9563687989 -1.413775952
H 0.0482924961 -1.1639160918 -1.5077748651
H -4.7195232493 -1.3722976663 2.1356226735
H -3.1220165552 -0.834772407 2.7252835239
H -4.9546320222 0.5641501067 3.6896464617
H -3.8676715795 1.5225719082 2.6729430766
H -5.4511670456 1.0296122779 2.0529630359
H -3.5372876906 1.9230994016 -1.1956026696
H -1.8418372766 2.3035407085 -0.7899942498
H -1.1438061687 1.784652161 -3.1025976688
H -2.7973421603 1.3093725032 -3.5229554064
H -2.4296406307 3.0013894793 -3.1362628526
*
