! pbe def2-sv(p) def2/J RI DEFGRID1 loosescf d4 GCP(DFT/SV(P)) printgap
%output
    printlevel normal
end
* xyz 0 1
C 3.779003108 -0.4342825874 2.051823245
C 4.2276435637 -0.7693924891 0.6448677825
O 3.6096167108 0.0694945017 -0.3566611623
P 2.052406201 0.2725164638 -0.5967602041
S 1.7524391997 0.9211519476 -2.4159942515
O 1.5221775498 1.2252904737 0.5751348568
C 1.4578998279 2.6500608966 0.3923719985
C 2.8385008486 3.271646044 0.3612150385
S 1.2165271124 -1.5940998281 -0.0703055497
C -0.0213895543 -1.7745661732 -1.395429522
S -1.6613013248 -2.1853173727 -0.7590247824
P -2.0348776643 -0.3871565548 0.2814981227
S -1.5089989258 1.2590194036 -0.6626893388
O -1.3284238857 -0.7336147489 1.6544766757
C -1.6367425922 -0.1248554505 2.9276271204
C -1.1062790196 1.2910001525 3.0171949109
O -3.5692149269 -0.4366753347 0.687383472
C -4.606368051 0.0864835338 -0.1603454247
C -4.8052283088 -0.761796401 -1.3992763033
H 3.990435102 0.6068661451 2.2811231989
H 2.7089715136 -0.6097999575 2.153160415
H 4.3086467763 -1.0706494316 2.7538581729
H 4.0002722074 -1.8109510649 0.4043619777
H 5.2932081638 -0.5806984282 0.5044680034
H 0.9149564466 2.8588730215 -0.5356737332
H 0.868324836 3.0056857774 1.2385738024
H 3.4025967411 2.8673794031 -0.4793803773
H 2.7449951975 4.3462471933 0.2405120136
H 3.3728236293 3.0566019352 1.2828175186
H 0.2721162866 -2.6082074911 -2.028517606
H -0.0572471541 -0.8427541369 -1.967740794
H -2.7185184045 -0.1536643491 3.0740331269
H -1.1458631861 -0.7825990081 3.6469158526
H -0.0373138196 1.2984659313 2.8175045857
H -1.6013655662 1.9248354176 2.2826005134
H -1.2912866568 1.6852178823 4.0114179257
H -5.4916593433 0.0844842345 0.4768942672
H -4.3442391087 1.1135061361 -0.4345918245
H -4.9475496634 -1.8038761616 -1.124934974
H -5.6756583901 -0.4074772946 -1.9420147346
H -3.9320395994 -0.6867967439 -2.0460546202
*
