! pbe def2-sv(p) def2/J RI DEFGRID1 loosescf d4 GCP(DFT/SV(P)) printgap
%output
    printlevel normal
end
* xyz 0 1
C 1.08955332 0.8193039685 2.9408522734
C 2.2575859698 1.0539462566 2.0044006141
O 2.7859123132 -0.1802321502 1.485459052
P 2.1570816802 -1.0189906368 0.2887568896
S 0.4513841771 -1.927040832 0.5968410566
O 3.2820994705 -2.0781483301 0.0048112504
C 4.6577791353 -1.7243890554 -0.2920921733
C 5.5149924386 -1.8103523652 0.9537804928
S 2.2425847676 0.3294728113 -1.3764636369
C 0.4851332421 0.4611172557 -1.7347719113
S -0.3862548635 1.4004763223 -0.4363223771
P -2.3455117456 0.6020773661 -0.705317557
S -2.4653128834 -1.03805236 -1.7668314272
O -3.1708722487 1.7596006583 -1.3836401004
C -3.0453730245 3.1817485578 -1.132821638
C -3.1714658078 3.5377185089 0.3320310012
O -2.9588298303 0.5508401105 0.7582520798
C -2.8271699819 -0.5715079069 1.6501115674
C -4.0897733306 -1.4100347215 1.6206467554
H 0.2518353695 0.3870960259 2.3977493292
H 1.3755891954 0.1356032135 3.7354687613
H 0.7812976379 1.7666419461 3.3705556041
H 3.1035100632 1.4993060761 2.5311130523
H 1.9627949903 1.6976006428 1.1693094163
H 4.9693672904 -2.4547175752 -1.0408829149
H 4.6796557317 -0.7207456293 -0.725448826
H 6.5466990676 -1.6015568439 0.6887125142
H 5.1798114416 -1.0894585132 1.6940645467
H 5.4487034163 -2.8069234916 1.3816327635
H 0.0336143913 -0.5325795861 -1.7989330778
H 0.4072916094 0.990543825 -2.6813615938
H -2.0819443972 3.5121767097 -1.529426063
H -3.8562085741 3.6080071823 -1.7252494667
H -2.3344574716 3.1232201802 0.8910129603
H -3.1649181508 4.6184711777 0.4349221276
H -4.0978269183 3.1414952843 0.7388572915
H -1.9593872396 -1.1742168094 1.3683582767
H -2.6637199485 -0.1320379633 2.6360503559
H -4.000039186 -2.2159698704 2.3416637494
H -4.9529513552 -0.7972385419 1.864588955
H -4.2284932081 -1.8371088676 0.6293586835
*
