! r2scan-3c def2/J RI DEFGRID2 scfconv6 printgap
%output
    printlevel normal
end
* xyz 0 1
C 4.2784473575 -0.216506431 -2.2021787158
C 4.4276867722 -0.591810948 -0.7412629298
O 3.1550233078 -0.7615040958 -0.0953097185
P 2.2135518952 0.4809057679 0.2473999775
S 3.1463905393 2.1199047485 0.7711888274
O 1.2329122 -0.1340332076 1.3276479243
C 1.5205702741 -0.0990772763 2.739164522
C 2.6498183496 -1.0381644018 3.1066269619
S 0.8769526076 0.6399017195 -1.3823576209
C 0.4234814249 -1.1059242389 -1.6031700741
S -0.6393181344 -1.7851282768 -0.2943631495
P -2.1036231618 -0.2755592859 -0.3095031109
S -2.6396639058 0.4211494369 -2.0665514607
O -1.5164781071 0.7680061425 0.7286351783
C -1.8551607503 2.1665016911 0.6761674931
C -3.2782433474 2.4055365879 1.1333672428
O -3.279825371 -0.9211594817 0.5402503343
C -4.1711775273 -1.9001229682 -0.0333084698
C -5.3954291711 -1.9933034237 0.8546544481
H 5.2620567836 -0.1446758329 -2.6552390141
H 3.6937719307 -0.9619920299 -2.7349491139
H 3.7804617992 0.7491499609 -2.2880929161
H 4.986676746 0.1818286879 -0.2052185854
H 4.9182114436 -1.5584924147 -0.6193707043
H 1.7657547028 0.9315858669 3.01632738
H 0.5775201405 -0.3944470235 3.2019259396
H 2.7529663544 -1.0691331531 4.1868068715
H 2.4418534568 -2.0373490384 2.7327842146
H 3.5830938676 -0.683465103 2.6719062547
H 1.31685966 -1.7247836607 -1.6231412656
H -0.1093390008 -1.1395352996 -2.5524421443
H -1.1261551704 2.6429829928 1.3343187292
H -1.7082839815 2.5233215319 -0.3493748786
H -3.4752679716 3.4726266872 1.1585199257
H -3.969192748 1.9322392518 0.4365452464
H -3.4300701621 1.9824540995 2.1227738528
H -4.4321321285 -1.5801396041 -1.0477421724
H -3.641199986 -2.8550379931 -0.0847446607
H -5.1003632544 -2.2663740033 1.8635751635
H -5.9111237966 -1.0377278832 0.8851623883
H -6.0653747036 -2.7489342902 0.4579206108
*
