  22
  -46.9645837200000       0.500018518409370      !md1
 C         -5.0637176541       -0.6837068535        0.0349551065
 C         -4.3080163872       -1.3777060028       -0.8958274390
 C         -2.9296813722       -1.2639340855       -0.8951215494
 C         -2.2938196202       -0.4405655642        0.0304340550
 C         -3.0579639864        0.2498210454        0.9666496951
 C         -4.4354674613        0.1243082166        0.9683182704
 C         -0.8234966042       -0.3347369377        0.0233479341
 C         -0.0548864422       -1.4942642967        0.0653590816
 C          1.3270651488       -1.4345424391        0.0682104373
 C          1.9789383211       -0.2047980153        0.0234337243
 C          1.2222708104        0.9626661754       -0.0349459262
 C         -0.1686510215        0.8975209168       -0.0354371360
 Cl        -1.0607629114        2.3670543411       -0.1670059625
 Cl         2.0199350761        2.4877729661       -0.1135307252
 Cl         3.6994264234       -0.1195608853        0.0326230674
 Cl         2.2539026707       -2.8848178734        0.1310807858
 H         -6.1390315445       -0.7742515662        0.0351612784
 H         -4.7933585399       -2.0099826845       -1.6232235492
 H         -2.3390281696       -1.7952283866       -1.6251676029
 H         -2.5701723451        0.8672525902        1.7046670124
 H         -5.0196352073        0.6592526653        1.7013156785
 H         -0.5447769832       -2.4532426222        0.1108946665
  22
  -46.9645836500000       0.499981481590630      !md4
 C         -5.0642698468       -0.6754500736        0.0896968275
 C         -4.4226255392       -0.1622862792       -1.0254841388
 C         -3.0449568831       -0.0392317095       -1.0419200538
 C         -2.2940597857       -0.4367075171        0.0603906893
 C         -2.9432919967       -0.9671575753        1.1722748905
 C         -4.3216976540       -1.0781256722        1.1876207808
 C         -0.8238189150       -0.3300374317        0.0576581377
 C         -0.0569953018       -1.4519679383        0.3582265877
 C          1.3249148303       -1.3921834403        0.3605728678
 C          1.9785930316       -0.1986074193        0.0652593547
 C          1.2236369518        0.9354024435       -0.2226699803
 C         -0.1673180715        0.8697351375       -0.2257570160
 Cl        -1.0580133176        2.3139978475       -0.5313362113
 Cl         2.0233994465        2.4219080161       -0.5681038408
 Cl         3.6993240659       -0.1148154422        0.0613329522
 Cl         2.2494615584       -2.7982146416        0.7275414556
 H         -6.1397182363       -0.7635603337        0.1016082525
 H         -4.9964798313        0.1441068526       -1.8865693657
 H         -2.5468873495        0.3460886224       -1.9178776097
 H         -2.3629162133       -1.2702350010        2.0298286694
 H         -4.8174596687       -1.4808193049        2.0573851284
 H         -0.5481174545       -2.3856537794        0.5788770981
