! pbe def2-sv(p) def2/J RI DEFGRID1 loosescf d4 GCP(DFT/SV(P)) printgap
%output
    printlevel normal
end
* xyz 0 1
C 4.4961968924 2.2321929811 -0.9104189067
C 4.7731878164 0.7519209254 -1.072618744
O 3.5621051166 -0.0291045807 -1.1732800346
P 2.4452515574 -0.1064193161 -0.0534101098
S 1.1407914397 1.3609130528 0.0358648472
O 3.3223026933 -0.2785574317 1.2617157733
C 2.7712927957 -0.1170982991 2.5801380066
C 1.9285044765 -1.3081472895 2.9887959864
S 1.7002623971 -2.0339024034 -0.5295506108
C -0.0036167309 -1.6427333756 -0.9838283409
S -1.0526242214 -1.283495217 0.4634201942
P -2.4270354617 0.0469061126 -0.4845660923
S -1.8299722804 0.9026972386 -2.1397847426
O -2.942683053 0.9405559866 0.7212602607
C -2.1389259052 1.8409734564 1.5046492467
C -1.9456742445 3.1703600788 0.8043892414
O -3.6967294157 -0.831954066 -0.8008628705
C -4.4104148748 -1.5993572165 0.2001604124
C -5.6276324282 -0.8420322488 0.6900960564
H 3.9881234179 2.4188181949 0.0349200214
H 5.4339030058 2.778796967 -0.923556762
H 3.8605519597 2.5890759961 -1.7179546219
H 5.3576787126 0.3685188424 -0.2336372689
H 5.287183046 0.5415446047 -2.0119912189
H 3.6478482076 -0.0069947246 3.2202656888
H 2.1787883308 0.8038482394 2.5966489657
H 1.6362090714 -1.2004890314 4.028227845
H 1.0298124041 -1.3666442669 2.3754904859
H 2.4936741979 -2.2282117839 2.8657146735
H -0.3855979179 -2.5286002695 -1.4851800281
H -0.033040805 -0.7716308861 -1.6441876435
H -2.7033000828 1.9572896708 2.4316761579
H -1.173433162 1.3738656889 1.7139685079
H -2.9062579779 3.5905801118 0.5188017319
H -1.4321834585 3.8548531435 1.4714683981
H -1.3394940917 3.0376919035 -0.0900883991
H -4.6957771497 -2.5187766193 -0.3141608046
H -3.7271692645 -1.8315214826 1.0222618066
H -6.2712113247 -0.5917743755 -0.1487881289
H -6.1754121105 -1.4652087395 1.3900123684
H -5.3264037539 0.0771163153 1.1849017155
*
