! pbe def2-sv(p) def2/J RI DEFGRID1 loosescf d4 GCP(DFT/SV(P)) printgap
%output
    printlevel normal
end
* xyz 0 1
C 4.4053489258 -1.1285559745 -2.2736582261
C 2.9250226887 -0.979783754 -1.9887356893
O 2.6790213002 0.1000272172 -1.054797819
P 2.5770757193 -0.0676472453 0.5091756793
S 2.1379612534 1.6222347733 1.3893133252
O 3.9834500357 -0.7021610488 0.8920394649
C 4.5005087295 -0.6969203319 2.236020586
C 3.6674908365 -1.5394085795 3.1798416649
S 1.1935665471 -1.661794195 0.8192058074
C -0.2800445334 -0.6360366802 0.7819064238
S -0.554142364 0.0079553299 -0.9146431486
P -2.548556281 0.6252178567 -0.6610036282
S -3.3784950733 1.362013352 -2.2757079323
O -2.336783631 1.562801714 0.6016408741
C -3.3794147962 1.9323154607 1.5320062445
C -4.5210661629 2.6674295371 0.8622885527
O -3.3346637856 -0.602380484 -0.0059900457
C -4.0208122377 -1.5724326627 -0.8158489026
C -3.0526126655 -2.4841771352 -1.5422953379
H 4.8129707376 -0.1863773393 -2.6299336062
H 4.9361258421 -1.42264537 -1.3723436356
H 4.5429091134 -1.8891084377 -3.0358751936
H 2.505647167 -1.9034896118 -1.5801525849
H 2.3694511313 -0.6886701751 -2.8821996726
H 5.5103086719 -1.0947027808 2.1258097154
H 4.5454094815 0.3400441215 2.5824608505
H 4.1795296604 -1.617487915 4.1335590662
H 2.6970623418 -1.0723912688 3.338847992
H 3.5163271677 -2.5337167449 2.7674039732
H -0.144284366 0.2100184774 1.4571133156
H -1.121796298 -1.2587293004 1.073777612
H -3.7354538524 1.0247905522 2.0245137244
H -2.8603877817 2.5686949383 2.2510674655
H -5.2323585987 2.9908012145 1.6158219677
H -4.1479244178 3.5353580766 0.3233292877
H -5.0253972507 2.0135692264 0.1519756092
H -4.6404432645 -2.1207927609 -0.1049927716
H -4.6535304394 -1.038716863 -1.5320794605
H -2.462939162 -1.9045760368 -2.2520528279
H -2.3801927027 -2.9710415637 -0.8402997204
H -3.6111774652 -3.2396932919 -2.0852378745
*
