! pbe def2-sv(p) def2/J RI DEFGRID1 loosescf d4 GCP(DFT/SV(P)) printgap
%output
    printlevel normal
end
* xyz 0 1
C 3.5666064475 -3.8562249728 -0.0319341462
C 3.7542995112 -3.0297994394 -1.2939411669
O 2.5011840537 -2.4631927433 -1.7297943419
C 2.1157935829 -1.3154759161 -1.2182368358
O 2.7556488812 -0.66379856 -0.4173342004
C 0.7533760525 -0.9053631328 -1.731865349
C 0.4873892877 0.5662127839 -1.429433536
H 0.9520685317 1.2295669169 -2.1591163772
C 0.9366212649 0.9544568835 -0.0351183381
O 0.4538097368 0.4211940713 0.9480919725
O 1.7704906325 1.9569721794 -0.0329677863
C 2.2341915411 2.4651366373 1.2356112718
C 1.3121185198 3.559487675 1.7476982433
S -1.2982233148 0.9324087213 -1.4673274009
P -2.0406242179 0.3241410209 0.4419875634
S -1.9911068061 1.4475107063 2.043988268
O -3.5835603485 0.2876341895 0.0287647359
C -4.1353252288 -0.549427624 -1.0039805776
O -1.7085846168 -1.244603487 0.5838849978
C -1.069050059 -1.827887892 1.718802315
H 2.8181768727 -4.6265626 -0.1955017563
H 4.5089080912 -4.3236225613 0.2338276633
H 3.2471926494 -3.2189261327 0.7901879676
H 4.0758783264 -3.6488500497 -2.1311790364
H 4.4643741127 -2.2159587262 -1.123104533
H 0.0202185098 -1.5348338435 -1.2192678253
H 0.6748366062 -1.1067780302 -2.7991936525
H 2.2878301184 1.6333461262 1.9425688773
H 3.2318001554 2.8486847451 1.0214838039
H 1.2163439988 4.3471911729 1.0055404682
H 0.3242423042 3.1552488457 1.9637864305
H 1.7240747218 3.9745369258 2.6613265347
H -5.209730936 -0.5287573847 -0.8395286059
H -3.7528302419 -1.564256413 -0.9108265538
H -3.8892905293 -0.1387130447 -1.9818314024
H -1.5263354933 -2.8053202674 1.8536694858
H -1.2208519625 -1.2057370196 2.6019311572
H 0.0003718247 -1.9167009733 1.5302735404
*
