! pbe def2-sv(p) def2/J RI DEFGRID1 loosescf d4 GCP(DFT/SV(P)) printgap
%output
    printlevel normal
end
* xyz 0 1
C 4.9188563917 -3.7180650031 -1.8117189729
C 4.0840990519 -2.8934782126 -0.8524412504
O 3.1567491501 -2.1096009027 -1.6309659204
C 2.3702824448 -1.2744653634 -0.9934094455
O 2.3670427433 -1.1226036435 0.2123082683
C 1.4712684467 -0.5022323755 -1.9349175214
C 0.4163803072 0.2444240291 -1.1302266325
H -0.1266522535 0.9531509195 -1.7648728574
C 1.0858165149 1.0421355061 -0.0225709093
O 2.0537429376 1.7380144845 -0.2310182991
O 0.4656185549 0.9322580012 1.1339888417
C 0.9918728492 1.6601016048 2.2604601705
C 0.3847831073 3.0498965281 2.343990463
S -0.8060012367 -0.9298251312 -0.458285476
P -2.185627142 0.4845650231 0.326814749
S -2.1291144989 2.2810865748 -0.4474300938
O -3.5801639482 -0.2763083835 0.1090211019
C -4.1165464222 -0.4790679829 -1.2028717563
O -2.1258414645 0.4816569903 1.9050792217
C -2.1563112994 -0.7368621421 2.6723169221
H 5.6212357377 -4.3220094143 -1.2472150199
H 4.276716987 -4.3674444138 -2.3985538473
H 5.4667223092 -3.0653737043 -2.4844578859
H 4.6978935154 -2.2100205613 -0.2574957388
H 3.508143074 -3.5231760791 -0.1675390828
H 1.0179486463 -1.1827237793 -2.6546623821
H 2.0925917195 0.2183651053 -2.4715738488
H 0.7239539363 1.0543585504 3.1264360497
H 2.0785251202 1.7090309534 2.1486094076
H -0.6999494136 2.9812220155 2.3890829094
H 0.7522764549 3.5495917 3.2338119336
H 0.6586023788 3.6329440955 1.4671477524
H -4.1191911492 0.4615860987 -1.7557634191
H -5.1329208798 -0.8333562057 -1.0515427181
H -3.5232876507 -1.2230151813 -1.7341348355
H -2.1402765594 -0.4187510888 3.711513253
H -1.2791322046 -1.3409158673 2.4396259819
H -3.0646239884 -1.2946920527 2.4529313699
*
