! pbe def2-sv(p) def2/J RI DEFGRID1 loosescf d4 GCP(DFT/SV(P)) printgap
%output
    printlevel normal
end
* xyz 0 1
C 0.8151151502 1.3084227111 -1.026879341
C 1.4449062269 0.3272130522 -0.034825852
H 2.4632260613 0.0833631096 -0.3655470697
C 0.6371401156 -0.9946900435 0.016042831
H 0.6279568711 -1.3286348341 1.0600092702
C -0.8158894309 -0.7656693476 -0.4514586634
H -0.870602505 -0.8597883195 -1.5422653173
C -1.2818651397 0.6517131445 -0.0573204024
H -2.3205039887 0.7969555078 -0.3820047812
O -0.5264751261 1.6527373853 -0.6846021744
O -1.3070834721 0.7982895084 1.3311587183
O -1.6992603828 -1.7291338788 0.0561137588
O 1.2760132656 -2.0278674997 -0.6861158336
O 1.4687373493 0.8544260066 1.2757431346
H 0.836549376 0.8745589536 -2.0337601945
H 1.3522565289 2.2587366536 -1.0408812853
H -0.3874229112 0.8937457951 1.6553243703
H -1.8791787215 -1.5275473933 0.987944296
H 1.1220107449 -1.9398178493 -1.6373786687
H 2.0390843498 1.6362482358 1.3086890637
*
