! pbe def2-sv(p) def2/J RI DEFGRID1 loosescf d4 GCP(DFT/SV(P)) printgap
%output
    printlevel normal
end
* xyz 0 1
C 3.0282730936 -2.4076537124 2.103623543
C 1.6692630294 -2.2285538191 1.4619801334
O 1.4154832406 -0.843765315 1.1400140737
P 2.2120861851 -0.0926000143 -0.0019152967
S 2.8382084583 -1.1914892833 -1.5056818248
O 3.3503336376 0.6384906084 0.8267191113
C 4.388233052 1.4000243541 0.1776494517
C 5.5179738307 1.5865257845 1.1701983473
S 0.8779861388 1.4741411594 -0.4850608102
C -0.058339265 0.5525151542 -1.7373220048
S -1.0116135232 -0.8136755516 -1.0443872084
P -2.727003729 0.281985103 -0.3685126882
S -2.9286246226 2.0493603316 -1.1868231975
O -2.7004349764 0.1754369461 1.2212852191
C -1.6605453017 0.6550168795 2.0887264232
C -1.6248046211 2.1675804893 2.1715379633
O -3.9842513245 -0.600812371 -0.7046883548
C -4.3921717472 -1.8092196582 -0.0171088422
C -3.3732769786 -2.9214688925 -0.1437274036
H 3.8086487189 -2.1586209531 1.3853941351
H 3.1247589287 -1.7555235042 2.9675239374
H 3.1493671127 -3.4413149602 2.411975412
H 0.8595214411 -2.4925298879 2.1430925893
H 1.5897031495 -2.8175072816 0.5428170117
H 4.7195439009 0.8524600083 -0.7113548269
H 3.9656190344 2.3599179078 -0.1315354737
H 6.2977906541 2.1865735335 0.7129208448
H 5.1491840544 2.0909294655 2.0584093798
H 5.9292233846 0.6228698213 1.4567787111
H 0.6362089301 0.1191292372 -2.4563851812
H -0.7359106395 1.2662845869 -2.2079680564
H -1.9109164661 0.2138677585 3.0557313132
H -0.6983786193 0.2611831041 1.7471157468
H -1.3443299873 2.5975012722 1.2117699985
H -2.6023473592 2.5521406683 2.4509212184
H -0.8928046226 2.4662777922 2.9149882138
H -4.5758867896 -1.5605032771 1.0295128721
H -5.3311777509 -2.0673831989 -0.5089956483
H -2.4488278541 -2.6496263574 0.3631013522
H -3.7728721456 -3.822939991 0.3103437745
H -3.1502412208 -3.1156345484 -1.1898037865
*
