! pbe def2-sv(p) def2/J RI DEFGRID1 loosescf d4 GCP(DFT/SV(P)) printgap
%output
    printlevel normal
end
* xyz 0 1
C 1.1150813918 0.7513691399 2.957075455
C 2.3500458215 0.8321814833 2.0824243077
O 2.7332886438 -0.4578406957 1.5765516909
P 2.1025844303 -1.1834910217 0.3067040681
S 0.2849865354 -1.9066790478 0.4540352119
O 3.1102916198 -2.3727021506 0.105594497
C 4.5463621724 -2.3093084361 0.2941717004
C 5.2196696284 -1.3708698402 -0.6839719364
S 2.3896945359 0.1837272943 -1.3071983309
C 0.6816749293 0.5586042222 -1.7305018295
S -0.1291637752 1.6517961255 -0.503156135
P -1.9953664452 0.6913327133 -0.3045786387
S -2.4520113183 -0.6427741374 -1.6729859868
O -3.0050193978 1.9191803835 -0.2364436245
C -3.3816449746 2.6507971422 -1.4185672401
C -4.6235531454 3.4558775494 -1.0929065884
O -1.9907216971 0.2527155019 1.2133096292
C -2.8171349813 -0.8184195618 1.7076614474
C -4.2876358583 -0.4678531539 1.6374940234
H 0.9113669615 1.7300679991 3.3793114787
H 0.2523471707 0.4372186367 2.3725242735
H 1.2682622338 0.0343630145 3.7593373073
H 3.2192840029 1.1560115524 2.6581414125
H 2.1891573889 1.516403076 1.2429676963
H 4.7412782148 -2.0110392212 1.3255486451
H 4.8596916248 -3.3429938297 0.140129099
H 6.295657041 -1.4430039172 -0.5589092322
H 4.9593837161 -1.6364667751 -1.7051867263
H 4.9102723431 -0.3430095063 -0.5025932292
H 0.0992414513 -0.3629805848 -1.8065833991
H 0.7202341928 1.080291736 -2.6833096815
H -2.5476349669 3.3008049113 -1.698447162
H -3.5656700382 1.9350127738 -2.2272796491
H -4.9062739806 4.041061483 -1.9616892077
H -5.4410267518 2.7922096055 -0.826040751
H -4.4232632072 4.1212002311 -0.2582657025
H -2.5939629465 -1.7208871347 1.1284154086
H -2.4770162722 -0.9566701128 2.7348829076
H -4.8695798243 -1.2626163896 2.0933338725
H -4.4732881266 0.467593385 2.1586451651
H -4.5901876851 -0.3591518595 0.5963732189
*
