! pbe def2-sv(p) def2/J RI DEFGRID1 loosescf d4 GCP(DFT/SV(P)) printgap
%output
    printlevel normal
end
* xyz 0 1
C 3.9975781733 -2.041427275 0.8465326818
C 4.6517198904 -0.9690907994 0.0020151115
O 3.7352478375 -0.3617670452 -0.9435898028
P 2.4108396552 0.4127222211 -0.5827516084
S 1.9119736315 1.6331780478 -2.0314516856
O 2.7905166431 1.0772755794 0.8097025958
C 2.0106448488 2.1091254606 1.4379288262
C 2.9463969462 2.9571803261 2.2747934709
S 0.9613938248 -1.0736455399 -0.1085316676
C -0.1189651569 -0.9184066186 -1.5698057205
S -1.8084217934 -1.4225914716 -1.2180412482
P -2.4101080522 0.1574409362 0.0928931312
S -1.1959010044 1.6958351563 0.1495633097
O -2.7204946249 -0.5085631723 1.5036105467
C -1.7055125971 -0.8978520081 2.4469423508
C -1.3802793654 -2.3734517989 2.3222965616
O -3.8490927057 0.5788042601 -0.3820152975
C -5.0676667609 -0.1655485503 -0.1263304585
C -5.0456121178 -1.5455561649 -0.7466571405
H 3.2234660926 -1.6060283544 1.4761005463
H 3.5464503091 -2.8027616025 0.2157737202
H 4.7515074567 -2.5002599873 1.4785955861
H 5.4302179393 -1.3811707229 -0.6418761815
H 5.0664834504 -0.1766264371 0.6272130643
H 1.5091345946 2.7020778201 0.6658549927
H 1.2452724972 1.630264555 2.0537016273
H 3.6921292688 3.4271083205 1.6393733893
H 2.370003889 3.726580005 2.7776227178
H 3.4471426494 2.3388190852 3.0139634718
H 0.2377643096 -1.5867502994 -2.3499181859
H -0.0938593445 0.1229890329 -1.9011593423
H -0.8165936639 -0.2788848962 2.2891449878
H -2.1383807088 -0.6683988356 3.4226225466
H -0.6980016824 -2.6523881 3.1182998291
H -2.2891092723 -2.9622665377 2.4055259538
H -0.9051582677 -2.5823961373 1.366485214
H -5.2089380707 -0.2226436735 0.9542090551
H -5.8389504641 0.4651365555 -0.5708316335
H -4.2687282339 -2.1544705382 -0.2877250615
H -6.0085868113 -2.0206217947 -0.5870671853
H -4.850260292 -1.4808649469 -1.8138515678
*
