  32
        -32.65240548
 C          5.7028261808        0.2982679162       -0.0051398878
 C          4.4231971353       -0.5298223711       -0.0045233356
 C          3.1759467798        0.3512217939        0.0029198536
 C          1.8892435010       -0.4707695500        0.0023916693
 C          0.6435392926        0.4123726603        0.0051902972
 C         -0.6432985000       -0.4094430724        0.0051398705
 C         -1.8895866831        0.4728582731        0.0021396980
 C         -3.1753865029       -0.3505729535        0.0017111629
 C         -4.4241555684        0.5282914295       -0.0047436462
 C         -5.7023527242       -0.3019888463       -0.0042740958
 H          6.5771080266       -0.3479413975       -0.0086484090
 H          5.7463238861        0.9316524362        0.8780810809
 H          5.7426360020        0.9361045607       -0.8853065257
 H          4.4106870569       -1.1785146721        0.8743305290
 H          4.4052830388       -1.1712826364       -0.8885949496
 H          3.1890683992        1.0007626439       -0.8756097078
 H          3.1936188733        0.9927048250        0.8872672133
 H          1.8742629569       -1.1184845436        0.8822346276
 H          1.8727205990       -1.1145396032       -0.8803345608
 H          0.6582018206        1.0591971449       -0.8752140115
 H          0.6600086336        1.0566994376        0.8873778687
 H         -0.6596897637       -1.0537044382        0.8873847904
 H         -0.6576817939       -1.0563917447       -0.8751834462
 H         -1.8756451941        1.1201102526        0.8823300752
 H         -1.8732453493        1.1170714850       -0.8802460484
 H         -3.1875590616       -0.9992159848       -0.8774765407
 H         -3.1922228860       -0.9930382781        0.8853380542
 H         -4.4121137182        1.1770435246        0.8740300922
 H         -4.4080145514        1.1696848765       -0.8888758990
 H         -6.5778993396        0.3425045963       -0.0089626100
 H         -5.7407488601       -0.9412365805       -0.8834724775
 H         -5.7447759577       -0.9341347346        0.8798793001
