! pbe def2-sv(p) def2/J RI DEFGRID1 loosescf d4 GCP(DFT/SV(P)) printgap
%output
    printlevel normal
end
* xyz 0 1
C 4.1939533487 -0.5667847024 -1.8890518902
C 4.3744426554 0.4969041928 -0.8262015857
O 3.1308800369 0.8676671651 -0.1788692055
P 2.2419937803 -0.0831651062 0.7174239029
S 1.328647605 0.8901609541 2.1518528803
O 3.2786720959 -1.1772526917 1.2170667584
C 3.0105230542 -2.0141638177 2.3557445767
C 1.8864287751 -2.9916342594 2.0832510717
S 0.9816361496 -1.1379574433 -0.6577665236
C 0.416309116 0.2886695579 -1.6207009898
S -0.6412264001 1.43751165 -0.7057621602
P -2.4979211466 0.3845596598 -0.8452981366
S -2.5513482125 -0.9718039227 -2.2542543367
O -3.606004615 1.4702253825 -1.1156610996
C -4.1287620603 2.4181626001 -0.1541444991
C -3.0768279617 3.3895790846 0.3377646669
O -2.8645192094 -0.0495949529 0.6433055406
C -2.0835494776 -0.8958152147 1.5002911245
C -2.0910974104 -2.3416397375 1.046081466
H 5.1522050905 -0.7499167161 -2.3656426971
H 3.8401976724 -1.4929870985 -1.4419630362
H 3.4817117674 -0.2452859508 -2.645188036
H 4.7207125117 1.4396404748 -1.2531687202
H 5.0704517617 0.1595692732 -0.0565193494
H 3.958013241 -2.5242610106 2.5344183436
H 2.7642013852 -1.3716894143 3.2070561608
H 2.0925489864 -3.570598714 1.1868286556
H 1.7780153816 -3.6618823692 2.9297061117
H 0.9540057296 -2.4472929151 1.9399982453
H -0.1474194953 -0.1240770353 -2.4591674354
H 1.2716599453 0.8695709077 -1.9564697855
H -4.9141018571 2.9284516176 -0.7139013694
H -4.5647978798 1.8592044473 0.6756613551
H -2.5978196568 3.8882159287 -0.5013319753
H -3.5487247681 4.1328019603 0.9730400229
H -2.313470425 2.8699962681 0.9158808152
H -1.0644718694 -0.4981229522 1.5606004701
H -2.5618662142 -0.7849720433 2.4756210458
H -1.6132299605 -2.9570300216 1.8016986124
H -3.1143929417 -2.6796183103 0.903463798
H -1.5551933474 -2.4537030102 0.1053952933
*
