! pbe def2-sv(p) def2/J RI DEFGRID1 loosescf d4 GCP(DFT/SV(P)) printgap
%output
    printlevel normal
end
* xyz 0 1
C 2.0252692816 -3.3947587891 -2.4351138897
C 3.2241683416 -2.8915426274 -1.6470765516
O 2.9358330365 -1.6162655331 -1.0444011925
C 2.3106860083 -1.5975882444 0.1149910029
O 2.0288738285 -2.5771193212 0.7669845251
C 1.9832230787 -0.1772876496 0.5447306418
C 1.2041841732 0.5367135919 -0.5632368828
H 1.859167838 0.7416064234 -1.412402678
C 0.5923692599 1.8211649089 -0.043168171
O -0.6133887015 1.9709389301 0.0393254025
O 1.4871646858 2.6886250498 0.3204634351
C 1.0448325107 3.9501576098 0.8744900796
C 0.7270149037 4.9434821165 -0.2301791102
S -0.1532780701 -0.4871281932 -1.2346977659
P -1.6118298366 -0.2813156348 0.2757737692
S -1.2573070927 0.049723437 2.1880128643
O -2.9099503043 0.4505787357 -0.302460227
C -3.3740447135 1.7511290846 0.0586702686
O -2.0754482362 -1.8020739695 0.0299862207
C -3.1415032464 -2.3886607806 0.7790058158
H 2.2827728439 -4.3252082163 -2.929831584
H 1.1850677038 -3.5686301627 -1.7660649806
H 1.7275814782 -2.6583127409 -3.1762703902
H 4.0768961808 -2.6982531995 -2.2976278398
H 3.4950386912 -3.5992667021 -0.8584404189
H 2.9082498265 0.3670860842 0.7394289834
H 1.3968731797 -0.233688733 1.4644790385
H 0.1705307147 3.7655814359 1.504160926
H 1.8872955193 4.2820498408 1.4805572771
H 0.4575777835 5.8955947035 0.2145366636
H 1.5929740939 5.0801993837 -0.8715689916
H -0.1070149055 4.5873792526 -0.8302200018
H -2.9707590355 2.4858394983 -0.6345659169
H -3.0608838665 1.9921990775 1.075428654
H -4.4590162237 1.7089189796 -0.0077448805
H -3.0728106207 -3.4589347233 0.6012708876
H -4.0991425145 -2.0011052363 0.4324601924
H -3.0162064241 -2.1726249307 1.8424518048
*
