! pbe def2-sv(p) def2/J RI DEFGRID1 loosescf d4 GCP(DFT/SV(P)) printgap
%output
    printlevel normal
end
* xyz 0 1
C 4.1014548864 -1.5294232901 -2.275044167
C 4.7535153837 -1.1641469733 -0.9577410924
O 3.8019740168 -1.0751972339 0.1186685508
P 2.6709452929 0.036624316 0.1665807687
S 3.1801550229 1.8189719761 -0.4718935913
O 2.2741397667 0.0715493959 1.691832305
C 2.3848061628 -1.0293605196 2.6286986878
C 1.5146972374 -2.2066148149 2.2455535287
S 1.0148527821 -0.8145831423 -0.8889998022
C 0.0584752202 0.7092295365 -0.9971709648
S -0.9206930688 1.0370280102 0.4932485101
P -2.773251434 0.3339420998 -0.3093964615
S -3.2374441737 1.0072335789 -2.0851748822
O -3.8206008597 0.6049477537 0.8549763907
C -4.5433331456 1.8435371382 0.9799354431
C -3.6283775936 3.0175156286 1.2607305435
O -2.657587561 -1.2355172067 -0.3072316812
C -2.4105317753 -2.0170452849 0.8909116284
C -1.6828274322 -3.2795695909 0.4784849532
H 3.4668600441 -0.7128038936 -2.6163721949
H 4.8720507418 -1.7066074871 -3.0184289911
H 3.4933024618 -2.423574882 -2.1646486276
H 5.2724710274 -0.2042909736 -1.0398315394
H 5.4484825221 -1.9361551694 -0.6243563609
H 3.4349806297 -1.3209040863 2.6879256318
H 2.0672913319 -0.5820254514 3.5718153102
H 1.8514540564 -2.6331674162 1.3029865191
H 1.5807058755 -2.9627327496 3.0214974818
H 0.4802621781 -1.8913218923 2.1416610886
H -0.6168113773 0.6261649794 -1.8500485433
H 0.7499229736 1.5439663166 -1.1301678549
H -5.1063907038 2.0081525153 0.0563544346
H -5.2299140694 1.6596492838 1.8075275931
H -2.9980328419 3.2141253854 0.39420566
H -4.2274151026 3.899268569 1.4643815536
H -2.9913919522 2.8074924849 2.1165484761
H -1.8204826774 -1.4113210204 1.5854731905
H -3.3794661487 -2.2353664009 1.3430716784
H -2.2911118704 -3.842727969 -0.2229970479
H -0.7408256877 -3.0293521648 -0.0033101088
H -1.4912419508 -3.8861315859 1.3576094737
*
