! pbe def2-sv(p) def2/J RI DEFGRID1 loosescf d4 GCP(DFT/SV(P)) printgap
%output
    printlevel normal
end
* xyz 0 1
C 5.2510850662 0.9604947875 -0.7199549407
C 4.1696840877 0.0908640763 -1.3321764033
O 3.2914444607 -0.432115619 -0.3202401009
P 1.9351196896 0.310415622 0.0851333383
S 2.0983138989 2.1615388762 0.6952184723
O 1.3701304932 -0.7424089079 1.1147294529
C 1.3976681989 -0.5152085919 2.5362676539
C 2.7887076117 -0.7386390873 3.0895364007
S 0.7180738237 0.0411067628 -1.6373561279
C 0.2395149886 -1.6945553807 -1.4492615339
S -0.9440329651 -2.0127285909 -0.0952314924
P -2.0755887598 -0.2424594783 -0.1709242153
S -2.7542768406 0.3390992393 -1.9226890952
O -1.1260568196 0.7360171586 0.6588808951
C -1.5806542769 2.0120552825 1.1651048857
C -1.5273411848 3.0963282749 0.1082546644
O -3.2273271958 -0.495502188 0.895874327
C -4.5033828273 -1.0523487552 0.531096204
C -4.3974988974 -2.5213044595 0.177475367
H 4.8092474991 1.8300529503 -0.2382596828
H 5.8091007195 0.3947821992 0.0208365983
H 5.9263915425 1.2944821246 -1.5009996216
H 4.5973343179 -0.7917281494 -1.8118880737
H 3.5800599724 0.6535556529 -2.0643949938
H 1.0595763516 0.5063941981 2.7368117524
H 0.6751742314 -1.2303378339 2.9326987521
H 3.1405981343 -1.7328444253 2.8284873472
H 3.470624293 -0.0006985855 2.6685779464
H 2.7704877474 -0.6305224976 4.1693163128
H 1.1142850922 -2.3063214107 -1.24055937
H -0.2212146901 -1.9677057298 -2.3967977715
H -2.5913738372 1.8892275673 1.5608540281
H -0.8878584986 2.2329705023 1.9799286544
H -1.8369934298 4.0377541149 0.5506022072
H -0.5124529482 3.1997379467 -0.2696461678
H -2.1869730677 2.8570465224 -0.7230343217
H -5.1217601157 -0.8922653067 1.4152482988
H -4.9009822617 -0.4803381811 -0.3134981479
H -3.8228438729 -2.6410839494 -0.7397489395
H -3.9008897923 -3.067467192 0.9753050127
H -5.3927953127 -2.926270307 0.0256451827
*
