! pbe def2-sv(p) def2/J RI DEFGRID1 loosescf d4 GCP(DFT/SV(P)) printgap
%output
    printlevel normal
end
* xyz 0 1
C 1.4815351123 -0.5809171516 -2.8619863174
C 2.4975493526 0.1523014341 -2.0089522601
O 2.866371982 -0.6363751981 -0.8643446455
P 2.2971285084 -0.4118828189 0.6020662788
S 2.3458579333 1.4354491276 1.269075575
O 3.1661127815 -1.441536821 1.4326973318
C 4.423180916 -1.0791737562 2.0397746141
C 5.5001460117 -0.8307663675 1.0049761278
S 0.4628558085 -1.4468245987 0.6633592512
C -0.4391737055 -0.3574353033 1.8258894778
S -2.1969960236 -0.3088789802 1.4534634171
P -2.05767239 0.4936110995 -0.5235272889
S -0.6276624088 1.7889808455 -0.8527633403
O -3.5544881415 0.9379298395 -0.8140408751
C -4.3662844171 1.7523275165 0.0529272414
C -3.6943492382 3.0545133426 0.4340055559
O -1.8838881633 -0.7297731066 -1.500858637
C -2.7890420218 -1.86115162 -1.5394771525
C -3.7467773763 -1.7309606574 -2.705973111
H 1.3206419998 -0.0219652292 -3.7782759983
H 1.8458752645 -1.5762020736 -3.1003340071
H 0.5320612419 -0.6666530238 -2.3369278761
H 2.1080236761 1.1200159551 -1.6748035244
H 3.4308860259 0.3061488961 -2.5542515778
H 4.2643097346 -0.1867109156 2.6535291662
H 4.6595537139 -1.9333698813 2.6754340251
H 6.449458627 -0.6666251805 1.5051775472
H 5.5831911296 -1.6840271309 0.337024935
H 5.2514667814 0.052658221 0.418237971
H -0.0148474364 0.6482059712 1.7502120168
H -0.3501579931 -0.7497908441 2.8358961213
H -5.2705702241 1.9284396946 -0.5322449439
H -4.6058091493 1.1656301453 0.9438811798
H -4.3804252808 3.658222061 1.0192529986
H -2.8015939039 2.8586132824 1.0268536483
H -3.3985984945 3.6050726151 -0.4561717583
H -2.1382204535 -2.730773342 -1.6480155767
H -3.3250525688 -1.9212674856 -0.5883250797
H -4.3803649886 -2.6113917093 -2.7451378284
H -4.3661841317 -0.8460639577 -2.5864839579
H -3.1916956322 -1.6455695563 -3.6359181575
*
