! pbe def2-sv(p) def2/J RI DEFGRID1 loosescf d4 GCP(DFT/SV(P)) printgap
%output
    printlevel normal
end
* xyz 0 1
C 5.2928910226 -0.0780740302 -2.3824528869
C 3.8435098146 -0.4733463062 -2.1825602624
O 3.5711560986 -0.4715446517 -0.7669752222
P 2.1083720255 -0.2793628108 -0.181344127
S 1.1032690137 1.167599262 -1.0485737167
O 2.3711847075 -0.1526141497 1.3710352159
C 2.6093203819 1.1103431114 2.0246546324
C 3.8742178958 1.7746290339 1.5266517017
S 1.3704508386 -2.2532743656 -0.2681188867
C -0.2779242977 -2.047600399 0.4583157918
S -1.4672166047 -1.2664732541 -0.6767464563
P -2.2130520677 0.2178417992 0.6610738625
S -0.9471025769 0.9354259508 1.9684423085
O -3.3963975263 -0.4911422412 1.4231104156
C -4.5204469414 -1.1235348469 0.7610828051
C -5.6955233085 -0.1728548511 0.6616551896
O -2.9731105844 1.2597506472 -0.2578557397
C -2.3358670911 2.2233899415 -1.1193626998
C -2.2700328508 1.7130582217 -2.5445803673
H 5.9403909308 -0.7654013163 -1.8459422577
H 5.5276239852 -0.1136581683 -3.4411347143
H 5.463259677 0.9287489648 -2.0114641748
H 3.6483288591 -1.4796796428 -2.5616450214
H 3.1634840395 0.2333062376 -2.6708076899
H 1.7359632512 1.7515103161 1.8674158458
H 2.6729171885 0.8440562422 3.0804962008
H 4.7154143717 1.0919467568 1.614917306
H 3.7550519495 2.0572875744 0.4811814228
H 4.0651240855 2.6673108728 2.1139421543
H -0.2035504761 -1.4346736181 1.3600814607
H -0.6231236086 -3.0528003729 0.6847639523
H -4.2006348238 -1.4666970546 -0.226933827
H -4.7566907249 -1.9810808127 1.3935961162
H -5.9650256687 0.1897340734 1.6498900773
H -5.4426966552 0.6775254308 0.0345731883
H -6.5409236143 -0.6991670238 0.2295807669
H -2.9635683632 3.1132554718 -1.0441401977
H -1.3364374883 2.4504755237 -0.7376131928
H -3.2600568575 1.427517766 -2.8880019587
H -1.877727721 2.5001190293 -3.180099414
H -1.6072974786 0.8532457831 -2.6095667158
*
