! pbe def2-sv(p) def2/J RI DEFGRID1 loosescf d4 GCP(DFT/SV(P)) printgap
%output
    printlevel normal
end
* xyz 0 1
C 3.5249879162 1.9672430352 -0.6577768904
C 2.9155037706 2.2623685901 0.6960149155
O 1.6900267633 1.5235608675 0.927115502
P 1.6022514852 -0.0492563651 1.0499887122
S 0.1607130932 -0.65697414 2.2277335626
O 3.0615774897 -0.3878835147 1.6019056386
C 3.3718671609 -1.6172140064 2.2753385041
C 3.2517668446 -2.8252866017 1.3683626447
S 1.6041683504 -0.8297397755 -0.9414412335
C 0.1185662885 -1.8622231001 -0.9153082755
S -1.1878152035 -1.3192302853 -2.07023716
P -2.0537284531 0.2267993255 -0.9556923178
S -3.5478572157 1.2143400939 -1.7477950677
O -0.8374789197 1.1665893913 -0.4809851117
C -0.5383447875 2.371032949 -1.211393603
C -0.0307600596 2.0773403065 -2.6091994936
O -2.4037790598 -0.5832244211 0.3586068766
C -3.1691765017 0.0102524304 1.4294450566
C -3.6494335538 -1.110814077 2.3255591678
H 3.7932087162 0.9142997281 -0.727329912
H 2.8258851844 2.2046008432 -1.4546416644
H 4.4204345396 2.5688303159 -0.7798114544
H 2.6014721573 3.3042102358 0.7799721926
H 3.6154775149 2.0229943442 1.4985052383
H 4.3980406285 -1.4731523382 2.6166427254
H 2.7044625757 -1.7174000432 3.1371507475
H 2.2066934991 -2.9988392543 1.1158491027
H 3.8180926446 -2.6724365366 0.4532793956
H 3.6342015635 -3.6987191861 1.8868045279
H -0.2838963583 -1.8829375863 0.1000539219
H 0.3942041218 -2.8550470492 -1.2602665962
H -1.4494157305 2.9759579091 -1.2568866991
H 0.2091658446 2.8713922369 -0.5956069541
H 0.8224796005 1.4033838095 -2.5785649548
H -0.8222252269 1.6096008351 -3.1954957161
H 0.2568526489 3.0077262674 -3.0884638272
H -2.5164148692 0.699349618 1.9720414727
H -4.001836612 0.5694681211 0.989300544
H -2.7926411429 -1.6323138791 2.7448109915
H -4.2448612141 -0.6922663098 3.1300960636
H -4.2511579692 -1.8125448537 1.7551533572
*
