! pbe def2-sv(p) def2/J RI DEFGRID1 loosescf d4 GCP(DFT/SV(P)) printgap
%output
    printlevel normal
end
* xyz 0 1
C 4.3118550038 -2.3557609034 -1.5070802774
C 4.8666650213 -0.9482535883 -1.4308641833
O 4.2083319907 -0.1499804387 -0.4297699668
P 2.6755732048 0.2672299564 -0.5243882683
S 2.0281224568 0.7555097575 -2.3038424854
O 2.6119148706 1.4832151331 0.4767178766
C 3.142883419 1.4579828325 1.8292194213
C 2.0239444147 1.3233618399 2.8423873528
S 1.6555778624 -1.3538475313 0.4128707881
C 0.0265170321 -0.9515265078 -0.2304908298
S -0.5794713774 0.6171546001 0.500251214
P -2.630587506 0.2746816609 0.1767610297
S -3.8752203667 1.6759683293 0.7429569087
O -2.923995967 -1.1723656157 0.7866253178
C -3.3587549786 -1.3477942824 2.1457444097
C -2.2498154645 -1.0557269314 3.1369236527
O -2.5722944361 -0.0492724235 -1.3763748611
C -3.7425089155 0.0280468971 -2.216365965
C -4.760972503 -1.0371126441 -1.8687555063
H 4.9328242543 -2.9471721084 -2.1722680327
H 4.2995146145 -2.8130922466 -0.5210494597
H 3.2965515773 -2.3355930101 -1.8994929554
H 4.7654867687 -0.4413918069 -2.3953657698
H 5.9114018363 -0.942709857 -1.1166586391
H 3.8631125757 0.6424050125 1.9146692325
H 3.6559663407 2.4154079543 1.9330200675
H 1.5523846525 0.3468462949 2.7708355402
H 2.4346378204 1.4482613922 3.8392583356
H 1.2688309338 2.0848888524 2.6649273621
H -0.6456739532 -1.760440511 0.0438694252
H 0.0891964962 -0.8266287674 -1.3120534704
H -4.2142983988 -0.6881548226 2.3224544227
H -3.6766290364 -2.3904487918 2.1888919173
H -1.3738241552 -1.6629916308 2.92197983
H -1.9725624879 -0.0032841303 3.0823391228
H -2.5995987284 -1.2749718977 4.1405560374
H -4.1770393338 1.0272856276 -2.1119912617
H -3.3460453329 -0.0994780212 -3.2247092393
H -4.2977846843 -2.020132906 -1.881968906
H -5.1671006592 -0.8493026878 -0.8757368273
H -5.5701958355 -1.0080993564 -2.591694728
*
