! pbe def2-sv(p) def2/J RI DEFGRID1 loosescf d4 GCP(DFT/SV(P)) printgap
%output
    printlevel normal
end
* xyz 0 1
C 4.5411952846 -1.5010971709 -0.9591704054
C 4.6715145368 -0.1346583427 -0.3180397937
O 3.562259132 0.162259235 0.545020994
P 2.0875062395 0.4004603442 -0.0088679245
S 2.0619423238 1.338251207 -1.7375752684
O 1.4079549445 1.0313646427 1.2732636582
C 1.9016615096 2.1973248849 1.9686511866
C 1.681747661 3.467582322 1.1723424741
S 1.1445504715 -1.4949109048 0.0499745496
C 0.3579324003 -1.5223114095 -1.5960362701
S -1.389352586 -2.001271738 -1.5365815188
P -2.1474979644 -0.4627084577 -0.3024516811
S -1.3361074067 1.3230834899 -0.3979516193
O -2.238597227 -1.0821918521 1.1605961331
C -1.3803659066 -0.7801246797 2.2727011477
C -2.233432353 -0.641950702 3.5186800756
O -3.6379713728 -0.5870682951 -0.8138843848
C -4.6032087941 0.4739282251 -0.6609749503
C -4.9239545115 0.7504180557 0.7930627578
H 4.3639139008 -2.2596423004 -0.2010696052
H 3.7074891268 -1.5002157573 -1.660481218
H 5.4534498863 -1.7338844784 -1.4987879257
H 4.7309626039 0.6441750188 -1.0850422132
H 5.5391883872 -0.0780743022 0.3405101839
H 1.3211439065 2.2047092964 2.8929027129
H 2.9598753806 2.0471781254 2.1945918535
H 0.6405651597 3.5358137738 0.8626483201
H 1.9344345967 4.3277974928 1.7837763022
H 2.3031548199 3.4704332276 0.2785346576
H 0.8430815918 -2.2816085253 -2.2043487349
H 0.4667933269 -0.5301638561 -2.0447084503
H -0.6681109675 -1.6038391367 2.3695060202
H -0.831079815 0.1430100931 2.057841278
H -1.5848520293 -0.4990785861 4.3767884805
H -2.90295753 0.2092576146 3.4304775535
H -2.8240494897 -1.5423019759 3.6605328998
H -4.2080191539 1.3721258307 -1.146188507
H -5.4744645534 0.1102820042 -1.2074544624
H -4.0466306564 1.1646670964 1.2885560711
H -5.7349671612 1.4696089584 0.8525438397
H -5.214872035 -0.168965968 1.2944585501
*
