! pbe def2-sv(p) def2/J RI DEFGRID1 loosescf d4 GCP(DFT/SV(P)) printgap
%output
    printlevel normal
end
* xyz 0 1
C 5.4855343202 -1.5269784987 -1.5308772307
C 4.8924925669 -0.2617963081 -0.9443987172
O 3.6773429532 -0.6070233649 -0.2408333771
P 2.3507244614 0.2436294419 -0.375316123
S 1.90407305 0.7962587372 -2.2073263963
O 2.665922043 1.4390997499 0.6269294716
C 1.8454652219 2.6094910528 0.7863837798
C 0.9809751533 2.4922239045 2.0257611037
S 1.0577839716 -1.0687284512 0.6326891332
C 0.0739269183 -1.6520349316 -0.7979487237
S -1.6323761866 -1.978847591 -0.3373913862
P -2.1568803707 -0.0010315336 0.2809279673
S -1.3488668436 1.4785549539 -0.7141519014
O -1.7605058027 0.1217854015 1.8007830692
C -2.2076647829 -0.8014383951 2.8249390219
C -3.3573218315 -0.2029077339 3.6091510174
O -3.7411086319 -0.078743656 0.3565977618
C -4.6017278857 -0.5762026183 -0.6856268504
C -4.3552970455 0.094484525 -2.0204815029
H 5.6456647175 -2.2590250264 -0.7447020526
H 4.8105052 -1.9464315011 -2.272294358
H 6.4331035144 -1.2906401648 -2.0039287989
H 4.6542632225 0.4646880916 -1.7283365664
H 5.5627023811 0.197489627 -0.2152757928
H 2.5535890384 3.4356280626 0.8749946085
H 1.2337823153 2.7491281497 -0.111341399
H 0.4646585081 3.4330963292 2.1867875908
H 0.2386430568 1.7062076163 1.9001115396
H 1.5986179079 2.2617784006 2.8892175749
H 0.4803243779 -2.5944768455 -1.1563349206
H 0.1102248036 -0.8812633782 -1.5736439252
H -2.4952326518 -1.7449475239 2.3530851682
H -1.3300099024 -0.9598743831 3.4544085518
H -3.0576702932 0.7470829645 4.042936814
H -4.2104052686 -0.0353597005 2.9569568314
H -3.639788189 -0.8872393199 4.4029474174
H -4.4523392863 -1.6565397716 -0.7623545629
H -5.6054704803 -0.3635505451 -0.3135809609
H -4.4392881254 1.1747145012 -1.9251525696
H -3.354303296 -0.1398003919 -2.3810348067
H -5.0822945759 -0.2605398151 -2.7437490209
*
