! pbe def2-sv(p) def2/J RI DEFGRID1 loosescf d4 GCP(DFT/SV(P)) printgap
%output
    printlevel normal
end
* xyz 0 1
C 4.5894451064 1.1110794686 -1.8035175944
C 4.597566624 0.8554310637 -0.310384088
O 3.6798686483 -0.1873774354 0.057992199
P 2.1034076162 -0.0041763297 -0.0368430542
S 1.4994794418 1.7775224504 0.527407058
O 1.5562250532 -1.2272169587 0.8086862811
C 1.3461123341 -1.1477846322 2.2316437626
C 2.6444957417 -0.9837173223 2.9903123864
S 1.6916390807 -0.71096073 -1.9792687983
C -0.0758025501 -1.1084884918 -1.8967349462
S -1.1583944176 0.3169157077 -1.5931006114
P -2.0311621128 -0.2592264174 0.2727276367
S -1.6922832032 -2.1019997228 0.8312347103
O -3.5687914971 0.1105768775 0.1047351455
C -4.4866807051 -0.7159924301 -0.637578764
C -4.6869991395 -0.1926945445 -2.046572636
O -1.5623250384 0.7947928511 1.3431448845
C -1.8465899319 2.2126290135 1.2197938261
C -3.0449997449 2.5906589691 2.0629864977
H 4.7659050345 0.1859373096 -2.346322973
H 3.6221649864 1.5127162016 -2.1050731545
H 5.363049954 1.8307262988 -2.051255723
H 4.3274935304 1.7647263871 0.2371011558
H 5.5652378425 0.4874622255 0.0327604479
H 0.6644535817 -0.3139915438 2.434792323
H 0.8456241406 -2.0878775878 2.4711739281
H 2.446205248 -1.0516465803 4.0553878315
H 3.3465316049 -1.7610135848 2.7001919908
H 3.082171518 -0.0104653514 2.7716911869
H -0.2541187043 -1.8554653654 -1.1182185729
H -0.3152933669 -1.5014137053 -2.8820531619
H -4.1142525123 -1.74550598 -0.6386308978
H -5.4163694641 -0.6724209375 -0.066868337
H -5.4424624253 -0.795028176 -2.5408013762
H -5.0181169461 0.8414850294 -2.0154558521
H -3.7618092857 -0.2457105762 -2.6145569476
H -0.9356573928 2.7065084247 1.5649629638
H -2.0041572896 2.4509899137 0.1646493236
H -3.9372934655 2.0892745859 1.6981671722
H -2.8765697233 2.3031942454 3.0971690609
H -3.1869830199 3.6653180466 2.0078594676
*
