! pbe def2-sv(p) def2/J RI DEFGRID1 loosescf d4 GCP(DFT/SV(P)) printgap
%output
    printlevel normal
end
* xyz 0 1
C 5.2492449403 0.4523251361 -0.5801542958
C 3.9133930257 0.1872443549 -1.2438140721
O 2.8358262562 0.7850277863 -0.4772265149
P 1.9635399955 -0.0022230696 0.5724757573
S 0.8936459909 1.1923225432 1.6890849252
O 3.0418641619 -0.8378404355 1.3932825695
C 2.7409674021 -1.4358730306 2.6648339093
C 1.7999526057 -2.6145283396 2.523472199
S 1.0187035118 -1.5469845301 -0.5894346163
C 0.4978096847 -0.5845979843 -2.0403069109
S -0.2860057289 0.9982552639 -1.6400726286
P -2.091410328 0.1952098459 -0.8960505649
S -2.9687201845 -1.1499145629 -2.0021919824
O -2.9915237657 1.4769031595 -0.668653442
C -2.5666138687 2.587003945 0.1646707226
C -3.7986425018 3.1889204942 0.8071075519
O -1.608863841 -0.3164843068 0.5377521056
C -2.3062540751 -1.359103572 1.2451615887
C -3.6517783795 -0.8813883031 1.7487529164
H 5.2941277034 -0.0399573436 0.3873778635
H 6.042350768 0.0694268645 -1.2149284011
H 5.387557857 1.5204921402 -0.4371762365
H 3.7314891901 -0.8860815978 -1.3434551071
H 3.8554879895 0.673111146 -2.2200096693
H 3.7142865898 -1.7414153173 3.0510572068
H 2.3069031529 -0.668117239 3.3137720525
H 1.6582263572 -3.0831254929 3.4919124651
H 0.8352027183 -2.2727808175 2.1495694238
H 2.2033864571 -3.3415474423 1.8235123062
H -0.2145279088 -1.2126946754 -2.5783235727
H 1.3595816645 -0.3524845283 -2.6611736563
H -1.8543374329 2.2264186079 0.9130538265
H -2.0637648915 3.3056636132 -0.4868584431
H -3.5033563431 4.0511126669 1.3962323693
H -4.5017682346 3.498215847 0.0390099598
H -4.2829328486 2.461771767 1.4529411921
H -2.4208964623 -2.2162584012 0.5740046998
H -1.6347313972 -1.6141558265 2.066702662
H -3.5243119909 -0.0179645279 2.3972822394
H -4.2821687309 -0.6045920534 0.9033138037
H -4.1336549376 -1.6806974729 2.3028182839
*
