  22
        -29.44542036
 C         -2.8099007148       -0.6194226981        0.5420566841
 C         -2.3198979012        0.5696326509        1.0560453445
 C         -1.1673262888        1.1281616818        0.5334635590
 C         -0.4857690637        0.5094380398       -0.5083676950
 C         -0.9877344569       -0.6812829012       -1.0176377575
 C         -2.1413526514       -1.2426394559       -0.4976894359
 C          0.7826153377        1.1110252332       -1.0452470235
 C          1.9658082230        0.8664871015       -0.1008456722
 C          2.3035094049       -0.6200178049        0.0149635551
 O          3.4484514241       -0.8621807985        0.8064401850
 H         -3.7096424871       -1.0565970754        0.9483747789
 H         -2.8387389944        1.0631714264        1.8645836967
 H         -0.7927562411        2.0588913493        0.9347687740
 H         -0.4705120199       -1.1731848765       -1.8288460069
 H         -2.5189645335       -2.1690703585       -0.9048253152
 H          0.6514978030        2.1884083440       -1.1625092803
 H          1.0103659822        0.6845961969       -2.0233711634
 H          1.7249318076        1.2588626522        0.8898815378
 H          2.8455498506        1.3950549528       -0.4726910034
 H          1.4413566364       -1.1715064600        0.4144285889
 H          2.5456770775       -1.0278033804       -0.9697763657
 H          3.2870304857       -0.5362299520        1.7025782913
