! r2scan-3c def2/J RI DEFGRID2 scfconv6 printgap
%output
    printlevel normal
end
* xyz 0 1
C 3.436826187 2.3334377739 -1.7154134366
C 3.9831109689 1.9146269662 -0.3655212461
O 3.6389499852 0.5551136526 -0.0607797032
P 2.1774310095 0.121836699 0.40425867
S 1.3954750179 1.3831219398 1.6913469996
O 2.441896026 -1.3490333107 0.9152909517
C 2.610055795 -1.6938795058 2.3095147132
C 1.8420431073 -2.9696848659 2.5892058963
S 1.1784162245 -0.3108844637 -1.4168416286
C 0.1637347257 -1.7211839171 -0.8866013426
S -0.8580317759 -1.380831758 0.5720339616
P -2.1811355107 -0.0402832579 -0.3558400921
S -2.6838774078 -0.401610085 -2.2198275223
O -1.4119495984 1.3154311866 -0.0921192525
C -1.8115315003 2.5664102657 -0.6958654705
C -0.582740572 3.2442472842 -1.2663825196
O -3.4148657703 0.0888379907 0.6397353196
C -4.5734818896 -0.7598544047 0.5428967559
C -4.2559380298 -2.1970389171 0.9013412592
H 3.7502034915 3.348583854 -1.9361884524
H 3.7970077995 1.6643260527 -2.4922181066
H 2.3478898881 2.292407467 -1.7006830604
H 3.5932121201 2.5579002477 0.4311580936
H 5.0737330228 1.9258320781 -0.3494437505
H 3.6810581947 -1.8237124824 2.4775077513
H 2.2442210185 -0.8647147168 2.9248908656
H 0.7818839616 -2.8183618587 2.3967343929
H 2.2062481854 -3.7719707931 1.9541718723
H 1.981196129 -3.2449020114 3.6294749809
H 0.8066999895 -2.5598779835 -0.6341667993
H -0.4818382109 -1.9528306862 -1.734936704
H -2.5515820411 2.3643233901 -1.4776543427
H -2.2675333847 3.1633603108 0.0962498214
H 0.1656706238 3.3556939558 -0.4851456815
H -0.1686375344 2.6455865349 -2.0751665766
H -0.8554369035 4.22304544 -1.6467005739
H -5.2823996507 -0.3144846347 1.2419620432
H -4.9631708263 -0.6942236529 -0.4780332918
H -3.7678402797 -2.2450116815 1.8716251692
H -5.1762367248 -2.7714429073 0.9305571757
H -3.5930061813 -2.6290912014 0.1526198602
*
