! pbe def2-sv(p) def2/J RI DEFGRID1 loosescf d4 GCP(DFT/SV(P)) printgap
%output
    printlevel normal
end
* xyz 0 1
C 4.7528372637 -0.6274133106 -2.2212022935
C 4.0416010651 -1.712938872 -1.441145797
O 3.5310959711 -1.2483013405 -0.1772884196
P 2.5569715995 -0.0079593448 0.0242642873
S 3.2965204533 1.7992085864 -0.0695947888
O 2.0186435139 -0.2755440205 1.4797894466
C 1.4489154961 -1.5361299191 1.9131786866
C 0.6235480861 -1.2605209075 3.1529137659
S 0.9701742697 -0.431089937 -1.3453286045
C 0.212717915 1.2059733511 -1.2534051222
S -0.6066665637 1.5032763739 0.3292329746
P -2.2278829181 0.1670064356 0.0026945501
S -2.868375458 0.095910089 -1.8556774213
O -3.274700619 0.5378680377 1.1382604387
C -3.7958501535 1.852483356 1.4102400966
C -4.3013106398 2.5620050132 0.1721956191
O -1.6443193315 -1.2019061783 0.5513617093
C -2.4412964865 -2.2298674817 1.1836316482
C -3.556004907 -2.7232383816 0.2861523662
H 5.1880675009 -1.0543924727 -3.118959722
H 4.0496337363 0.1545412516 -2.5045323292
H 5.537795621 -0.1786578889 -1.6170465118
H 4.7250276069 -2.5163409593 -1.1604189584
H 3.2057057475 -2.1193393872 -2.0175399525
H 0.8347713825 -1.9395498597 1.1020563333
H 2.2737666612 -2.2206972362 2.1190583311
H 1.2437107564 -0.7931080764 3.9122607035
H -0.196675861 -0.5884504299 2.9131727313
H 0.2256182784 -2.1949646396 3.5351853092
H -0.5218434825 1.2583158819 -2.0581762214
H 0.9852907062 1.9687174587 -1.3576582161
H -4.6039925824 1.6649440258 2.119766737
H -3.0056406371 2.4346113244 1.8922196397
H -4.7569905134 3.5041664728 0.4595426844
H -3.4762619588 2.7623587835 -0.5102112877
H -5.0355665252 1.950327904 -0.3467513859
H -1.7182552779 -3.0196454185 1.3937811398
H -2.8407595257 -1.8292234468 2.1175016082
H -4.0827763513 -3.5361223383 0.7760794108
H -4.2567196014 -1.9139375986 0.0837324822
H -3.1531714445 -3.0727805307 -0.6618004156
*
