! pbe def2-sv(p) def2/J RI DEFGRID1 loosescf d4 GCP(DFT/SV(P)) printgap
%output
    printlevel normal
end
* xyz 0 1
C 4.5677451859 -1.6472786689 -0.8460933091
C 4.6446958607 -0.2149254005 -0.3581784448
O 3.5106098031 0.1510746079 0.4457198171
P 2.0424462621 0.2821717547 -0.1529664867
S 1.9683912756 1.0332472068 -1.9661777076
O 1.3198184947 1.0868355917 1.0083732814
C 1.3223863909 2.5290651814 1.0541722479
C 2.7172108266 3.1053598159 1.1677123455
S 1.2369206821 -1.6426587415 0.1416753325
C 0.0899360935 -1.7395692612 -1.2750225291
S -1.6178645782 -2.0815150809 -0.7840998709
P -2.0631212027 -0.2556639704 0.1465305284
S -1.4784265643 1.4074515166 -0.7285210576
O -1.4476512421 -0.5351754085 1.578190564
C -1.4438294668 0.4570036976 2.6252145561
C -2.61533597 0.2506526684 3.5630880491
O -3.6256052007 -0.3087284576 0.4310779089
C -4.5992828139 0.1637647119 -0.5167453753
C -4.6450950679 -0.6960779758 -1.762773726
H 4.3906138406 -2.3222132588 -0.0126191781
H 3.75416888 -1.7518022408 -1.5625501344
H 5.5013098886 -1.9100342239 -1.3331326733
H 4.702399629 0.4746809781 -1.2065496124
H 5.495868587 -0.0605421313 0.3062832131
H 0.8157926536 2.9001786155 0.1566557131
H 0.7192727012 2.7611794582 1.9333760197
H 2.6469806401 4.1784153629 1.3165829677
H 3.242537579 2.6540439637 2.005504635
H 3.2759578833 2.9124965029 0.2526783371
H 0.3892125346 -2.5797023432 -1.8963505712
H 0.1419384209 -0.8003127109 -1.8329252157
H -0.4884692082 0.3167354783 3.1356559023
H -1.4688958541 1.4514811471 2.166233171
H -2.5889897041 -0.7565129036 3.9691384366
H -2.5527388754 0.9689903995 4.3745760953
H -3.5529370503 0.3897241843 3.0307054436
H -5.5400172034 0.125889435 0.0340639409
H -4.3568659218 1.2003590179 -0.7724141583
H -3.7194560293 -0.5850336833 -2.326246881
H -4.7676789173 -1.7425300421 -1.4953506313
H -5.475779125 -0.3812248807 -2.3862249023
*
