! pbe def2-sv(p) def2/J RI DEFGRID1 loosescf d4 GCP(DFT/SV(P)) printgap
%output
    printlevel normal
end
* xyz 0 1
C 2.7064787884 2.0161220248 -1.7151429073
C 3.3416992717 2.0117176643 -0.3388949071
O 3.3485192216 0.6968499033 0.2421724573
P 2.0607265581 0.0664932487 0.9300571445
S 1.0622647847 1.2962546491 2.0709428539
O 2.6351296564 -1.1520568596 1.74982578
C 3.5415616477 -2.1446858644 1.2045701363
C 4.982612383 -1.7686322657 1.4807216741
S 1.0554171263 -0.851456191 -0.7243528409
C -0.1276454764 -1.8545534131 0.211178902
S -1.4910789397 -0.904712606 0.9418273379
P -2.1978293522 -0.0517830196 -0.8842249262
S -1.993182108 -1.1497302285 -2.486780332
O -1.4733494076 1.3458240732 -1.0026562418
C -1.7144378947 2.4297353669 -0.0660986572
C -0.7886898178 3.5693206695 -0.4320097873
O -3.6861727508 0.3877389921 -0.5351691497
C -4.8141097991 -0.490490539 -0.7074281637
C -4.774161819 -1.6745293857 0.2364126162
H 2.8000529813 3.0061464134 -2.1500365489
H 3.1985259561 1.2920540949 -2.3592267405
H 1.6502261187 1.7574664273 -1.6519522754
H 2.8158582465 2.6891521683 0.3425503966
H 4.3962505029 2.287335028 -0.3878415677
H 3.2700910506 -3.069524485 1.7173562126
H 3.3569614503 -2.244109778 0.1315323311
H 5.2423956095 -0.8542575706 0.9547834399
H 5.1290112578 -1.6146479232 2.5463389337
H 5.6288172715 -2.5727301093 1.142488448
H 0.3714503579 -2.3575639704 1.0364527074
H -0.5330126475 -2.5685071711 -0.505123171
H -2.7634577698 2.7183537768 -0.148446656
H -1.5142706175 2.0672023997 0.9468796981
H -0.9068941243 3.824076866 -1.4812620912
H -1.0316962748 4.429912214 0.1823265997
H 0.243430857 3.2861527138 -0.2461779083
H -5.6731368545 0.1526441146 -0.5108960194
H -4.8300221818 -0.828337273 -1.7480889332
H -5.7078369109 -2.2225663094 0.1615515032
H -3.9535891869 -2.3377513301 -0.0325995734
H -4.6329398507 -1.3384150389 1.2608147066
*
