! pbe def2-sv(p) def2/J RI DEFGRID1 loosescf d4 GCP(DFT/SV(P)) printgap
%output
    printlevel normal
end
* xyz 0 1
C 4.0943429442 -1.4952237517 -2.464839973
C 4.470333215 -1.5545240188 -0.9984067357
O 3.3133101019 -1.5736194 -0.1448110248
P 2.3370064093 -0.3265386357 0.0002519787
S 3.2445728726 1.4158090024 0.0459430803
O 1.5227177616 -0.7245348198 1.2992958333
C 1.9801899877 -0.4102747143 2.6362723476
C 0.8361036011 0.208764991 3.4139367638
S 0.8447759036 -0.6167684005 -1.4593245571
C 0.1592068499 1.0626816355 -1.3754098948
S -0.7107371424 1.3992983259 0.1686299683
P -2.5648475341 0.4307128225 -0.2907578902
S -2.8838891701 0.0658852013 -2.1878390969
O -3.6844817547 1.3851132614 0.2611166925
C -3.6231605437 2.2116869244 1.4501761065
C -3.2553475602 1.4384358161 2.697610932
O -2.6730665699 -0.799441023 0.7145722575
C -1.7750325323 -1.9162047659 0.8033919151
C -1.9035563746 -2.8638954074 -0.3725032416
H 4.988671171 -1.599453336 -3.0707743182
H 3.3965060608 -2.29222187 -2.7094108921
H 3.625590719 -0.5380642612 -2.6909678169
H 5.0872322909 -0.6926921268 -0.7242279001
H 4.9929743468 -2.4797507968 -0.752506288
H 2.3112646367 -1.3497355696 3.0826415267
H 2.8267426677 0.2805994038 2.5683429755
H -0.0089501709 -0.4734478167 3.4430716837
H 1.1658418933 0.4147281659 4.4269957854
H 0.5267982387 1.1385493817 2.9419401102
H -0.5362434978 1.1528921554 -2.2108376425
H 0.9705953707 1.7868890915 -1.4426006103
H -2.9049269689 3.0142284087 1.2640613005
H -4.6310734534 2.6245552335 1.5143070599
H -3.9254086761 0.5929246384 2.8280894282
H -2.2321995551 1.0750092906 2.6266819979
H -3.3346869865 2.0973737255 3.5567563189
H -0.7491868074 -1.5461297258 0.8936450688
H -2.0680730002 -2.4064248905 1.7342743048
H -1.5786351961 -2.3812249676 -1.2922990343
H -1.2819891605 -3.73614369 -0.1969614173
H -2.9381554833 -3.175231601 -0.4920948381
*
