! pbe def2-sv(p) def2/J RI DEFGRID1 loosescf d4 GCP(DFT/SV(P)) printgap
%output
    printlevel normal
end
* xyz 0 1
C 5.244995288 0.2619746514 -0.253678281
C 4.4382670168 -1.0108990447 -0.0840257046
O 3.1961439686 -0.9579844494 -0.811586158
P 1.8853062189 -0.2360328027 -0.2726344648
S 1.8890148873 1.7261075319 -0.1828891143
O 1.668757819 -0.9688391492 1.1285590713
C 1.2800078316 -0.3069395206 2.3414867793
C 2.5008643543 0.022186098 3.1784563115
S 0.6402303054 -1.1262131009 -1.7186980903
C -0.3766488363 0.3010099396 -2.2117764104
S -2.154496007 0.1232968743 -1.8845591564
P -2.1473447662 0.1455380585 0.2380916718
S -3.8898875679 0.2108040644 1.1234547311
O -1.1205395035 1.2952777823 0.6300397265
C -1.5611439147 2.6412349105 0.8912205506
C -2.0490856458 3.3417358481 -0.3606384376
O -1.2028400798 -1.0629020714 0.6685754225
C -1.7316731529 -2.3798276111 0.9084548363
C -2.305049058 -3.0138090654 -0.3432733302
H 5.4208904476 0.4545694296 -1.3086183253
H 4.7122585503 1.1128343723 0.1665040245
H 6.1974569234 0.1536126159 0.2554922679
H 4.225548104 -1.2077016167 0.9700690164
H 4.9577432583 -1.8677182749 -0.517266177
H 0.7241432817 0.6010280704 2.0947508634
H 0.6175082747 -1.0074896913 2.8521271775
H 3.0701588768 -0.8796080912 3.3880815372
H 3.134399873 0.7322025589 2.6495262112
H 2.1804651383 0.4674529081 4.1149147405
H -0.3053645305 0.4000792026 -3.291777573
H 0.0128446371 1.1895236082 -1.7083061546
H -2.3532054971 2.6016707075 1.6452466807
H -0.6753294254 3.1304594685 1.3007852147
H -1.2668379004 3.3616426996 -1.1158137951
H -2.9223007109 2.8274990079 -0.7612671856
H -2.3244121583 4.3612814693 -0.1103998873
H -0.8735683941 -2.9411822208 1.282709211
H -2.4981490614 -2.3031304644 1.686290479
H -1.562764371 -3.0267568404 -1.1384860961
H -2.6090406717 -4.0312882656 -0.1188473195
H -3.175895597 -2.4514306281 -0.6798661798
*
