! pbe def2-sv(p) def2/J RI DEFGRID1 loosescf d4 GCP(DFT/SV(P)) printgap
%output
    printlevel normal
end
* xyz 0 1
C 3.8434157165 -0.4146358752 -2.3348144191
C 2.5454070897 0.3501022387 -2.1938239367
O 1.8121365464 -0.0816430515 -1.0324806548
P 2.2749680553 0.26968302 0.4370103724
S 3.2955287026 1.9243107665 0.666800624
O 2.9911572365 -1.0987603459 0.8473240732
C 3.5797419031 -1.2773735412 2.150391602
C 5.0542623784 -0.9245473972 2.1345188641
S 0.4521914622 0.2198041301 1.4831362147
C -0.2308421514 -1.3562227315 0.8244551327
S -2.0245739808 -1.3247219703 0.8710028761
P -2.3040984592 0.1010666691 -0.695723378
S -1.1651056338 -0.1981479804 -2.2610798783
O -2.0385827757 1.5588558166 -0.155780668
C -2.8867821841 2.3270607657 0.7324518805
C -3.0122465552 1.7084750434 2.1093742638
O -3.8780292244 0.1121449622 -0.897163699
C -4.7058485546 -1.0599724737 -1.0244855145
C -4.2640611281 -1.9686853185 -2.151913814
H 3.6492547805 -1.4837257646 -2.3497973921
H 4.3354925093 -0.1214585165 -3.2566194003
H 4.4950243986 -0.1834595436 -1.4926574566
H 1.8559952239 0.1594774236 -3.0186696885
H 2.7327995467 1.4253503914 -2.1082578336
H 3.0385841436 -0.6622160403 2.8771068702
H 3.4287679904 -2.3341305036 2.3793839738
H 5.479864705 -1.1230454042 3.1128101201
H 5.572545269 -1.5205313304 1.3885899996
H 5.1867963021 0.1289223704 1.8978108094
H 0.0883930712 -2.1790749803 1.4580500364
H 0.1032314648 -1.473905786 -0.2066003264
H -2.3822930755 3.2938248729 0.7751611907
H -3.8635810721 2.4367230941 0.2578322182
H -3.5287988631 2.4070178819 2.7602954956
H -3.5792396667 0.7813363509 2.0655909305
H -2.0261080414 1.5011751774 2.520608458
H -4.6908108478 -1.5930752466 -0.0701009172
H -5.7008460145 -0.6505084519 -1.2077903642
H -3.2755102156 -2.3742284755 -1.9419207207
H -4.9691460903 -2.7874080088 -2.2522581679
H -4.215908225 -1.4171987429 -3.0879982326
*
