! pbe def2-sv(p) def2/J RI DEFGRID1 loosescf d4 GCP(DFT/SV(P)) printgap
%output
    printlevel normal
end
* xyz 0 1
C 4.4764493688 -0.0632220968 -1.8502483889
C 3.1183902972 -0.7018850219 -2.0506767166
O 2.5471677475 -1.1356044589 -0.8009549351
P 2.0194429523 -0.1225308266 0.2950903443
S 1.3965978167 1.6321841908 -0.3621917739
O 3.2770800892 0.0176045389 1.2607064217
C 3.3760355958 1.0479130897 2.2560183374
C 2.38762907 0.8328419833 3.3842707016
S 0.7914313822 -1.4400690848 1.3891135514
C -0.2830519407 -2.1377287991 0.0843412639
S -0.5547515733 -1.0611860798 -1.3473127199
P -1.9722610175 0.2695711393 -0.5305326709
S -2.5116516653 1.7949597663 -1.6311534827
O -1.2811663759 0.5859044407 0.8577036637
C -1.7688171347 1.6230184292 1.7345180517
C -2.6420841877 1.0321729337 2.8213064169
O -3.1889883269 -0.6542082521 -0.0599778302
C -4.3106760785 -0.9278737325 -0.913962547
C -3.934877889 -1.8276364874 -2.0739824249
H 4.3685257723 0.8629858884 -1.2868289754
H 5.1287408948 -0.7356508277 -1.2995200822
H 4.916234187 0.1609800739 -2.816939583
H 3.1800228736 -1.6167397242 -2.6412808985
H 2.4237610917 -0.001319983 -2.5265344919
H 4.4080457181 0.9836419461 2.6030531905
H 3.2048430253 2.0153854707 1.7713738371
H 2.5142128618 -0.1575810307 3.8137421209
H 2.5412804633 1.5853870678 4.1509565766
H 1.3706088089 0.9174542568 3.0007995437
H -1.2354056083 -2.3660436428 0.5587028369
H 0.1911922173 -3.0329435285 -0.3110738954
H -0.8686441475 2.0872836431 2.144452899
H -2.3086228181 2.3648387089 1.1359546748
H -3.5307797607 0.5825476343 2.3855527085
H -2.0903180884 0.2699308285 3.3650746757
H -2.9381228242 1.8213025727 3.505136359
H -5.0376052298 -1.4020421562 -0.2531419393
H -4.7034266558 0.0253722711 -1.2816886481
H -4.8249743542 -2.0608511805 -2.6492816739
H -3.2213326741 -1.3171525825 -2.7207329
H -3.4862336498 -2.7499520008 -1.7145071737
*
