! pbe def2-sv(p) def2/J RI DEFGRID1 loosescf d4 GCP(DFT/SV(P)) printgap
%output
    printlevel normal
end
* xyz 0 1
C 4.8610071141 -3.1198758993 -1.7605223953
C 4.9557579999 -2.0834349933 -0.6523306631
O 3.7505737759 -2.0655367461 0.1382513034
C 2.7561503335 -1.2911790933 -0.2411148737
O 2.7787745629 -0.5598753594 -1.210009074
C 1.5753885349 -1.4034543963 0.7007411322
C 0.4150613017 -0.6132503709 0.127647259
H 0.0428009488 -1.0467521906 -0.8068051961
C 0.7340579842 0.8444392992 -0.1270471442
O 0.1176590123 1.5047059875 -0.9383191013
O 1.6574394512 1.3134874136 0.6802825664
C 1.9910660857 2.7135698528 0.5887141529
C 0.9690696198 3.5704959218 1.3180027805
S -0.989874992 -0.5465006095 1.2900687938
P -2.4357134038 0.2228668839 -0.0747431658
S -2.3220609248 -0.4206163142 -1.9169494353
O -3.7943671053 -0.1721907426 0.6694093425
C -4.2377416205 -1.5335227993 0.7250152452
O -2.4740996951 1.7943366716 0.0960864706
C -2.7946899572 2.4049616311 1.3642136711
H 5.8037590822 -3.160421801 -2.2959717767
H 4.6441524777 -4.0980660619 -1.340675337
H 4.0712334114 -2.8503304169 -2.45855767
H 5.1156764005 -1.0847277125 -1.0683705369
H 5.7433369268 -2.3325825398 0.0588101304
H 1.8705822634 -1.0045151653 1.6729138781
H 1.3073182824 -2.4519589325 0.8289038234
H 2.9760559641 2.7802661951 1.0503372723
H 2.0458285219 2.9861352908 -0.4690447028
H 0.0050140843 3.4972713534 0.8197135432
H 0.8687490632 3.2392535325 2.3480435257
H 1.2949399992 4.6050901397 1.3022877912
H -5.279113547 -1.4893020074 1.0330156793
H -3.6425126465 -2.0841180195 1.4525192309
H -4.1492518573 -1.9961197545 -0.2590829285
H -3.8420116969 2.2286786868 1.6000840389
H -2.602784279 3.466110777 1.2267987763
H -2.1608611154 1.9922692867 2.150006602
*
