! pbe def2-sv(p) def2/J RI DEFGRID1 loosescf d4 GCP(DFT/SV(P)) printgap
%output
    printlevel normal
end
* xyz 0 1
C 2.0227531985 0.1530558709 -3.5787019224
C 2.6422046516 0.5710840936 -2.2601635352
O 2.4248052234 -0.495350723 -1.3088846933
P 2.2394910435 -0.2594987888 0.2417417109
S 1.1851292155 1.3270575753 0.7528881214
O 3.7522984051 -0.188223361 0.7299563976
C 4.1318470101 0.3049348184 2.0258322156
C 3.6287341516 -0.5853460338 3.1437099834
S 1.6155657799 -2.1928300733 0.7800535209
C -0.1896603661 -1.9963142835 0.6945574165
S -0.7598777048 -1.1506890153 -0.8074972779
P -2.0766550905 0.2496125178 0.089190091
S -2.113792989 0.3992758776 2.0385797577
O -3.4373577704 -0.3378059964 -0.5174678151
C -4.7145285109 -0.102034199 0.0964548071
C -5.1721597546 1.3296014069 -0.0988390735
O -1.8286952889 1.6538271314 -0.6006505386
C -1.2973095146 1.8826958151 -1.9221931623
C -2.1131597878 1.2112105065 -3.0065611981
H 2.1569730647 0.9478703324 -4.3050225731
H 2.5018373443 -0.7521969351 -3.9389761816
H 0.9620930046 -0.0459079315 -3.4482928048
H 2.1893131241 1.4891814856 -1.8681770838
H 3.7206560458 0.7183606547 -2.3505626282
H 5.2216452061 0.3293749425 1.9875373559
H 3.7389094318 1.3207959369 2.1366002135
H 3.9284648167 -1.6159327969 2.9705072458
H 4.0365325155 -0.2426684153 4.0893162653
H 2.5408475993 -0.5398685351 3.1938635344
H -0.5396865277 -1.427631783 1.5618452667
H -0.5899163537 -3.0072711593 0.7048622586
H -5.3807507748 -0.8130057235 -0.3939750678
H -4.6377867075 -0.3371920378 1.1630312709
H -5.2382491638 1.5664615391 -1.1573911209
H -6.1457859208 1.4645482495 0.3616047262
H -4.4597416897 2.0079554765 0.3712073669
H -1.3125198991 2.9700467911 -2.0136907946
H -0.2614806785 1.5333229675 -1.933248098
H -1.6813073177 1.4491059324 -3.9738218006
H -2.1067433344 0.1305236764 -2.8682324081
H -3.1410537407 1.5626295708 -2.9770183
*
