! pbe def2-sv(p) def2/J RI DEFGRID1 loosescf d4 GCP(DFT/SV(P)) printgap
%output
    printlevel normal
end
* xyz 0 1
C 3.4751657052 1.9558414356 -0.9547416697
C 3.6219683847 0.9430181327 0.163157838
O 2.964530851 -0.2923923344 -0.1838280869
P 1.7421556342 -0.9437715527 0.6025518776
S 1.1538050643 0.0666632269 2.1792214266
O 2.1721368346 -2.441496864 0.9206382543
C 2.7657269788 -2.8199697692 2.1761923733
C 4.1704905773 -2.2696341479 2.3196867027
S 0.4620047942 -1.5136632933 -0.9748582109
C 0.4381956 0.0375838699 -1.9201916314
S -0.1189978864 1.467482413 -0.9479196699
P -2.0673640613 0.776083295 -0.5915010152
S -2.9746842512 -0.1864392013 -2.0430992977
O -2.864621443 2.03754435 -0.0433633044
C -3.5870848749 2.9294696649 -0.9128303119
C -2.6590567347 3.7256779676 -1.807043658
O -1.82120206 -0.0451485131 0.7393691452
C -2.7952070959 -0.9615424268 1.2831171327
C -2.0539389863 -2.0841821837 1.9802079663
H 2.4329869142 2.2487902997 -1.0708025745
H 4.060911473 2.8353615467 -0.707847967
H 3.8385998732 1.5379695935 -1.8895339037
H 3.1921868994 1.3218380278 1.0969374375
H 4.6706814085 0.682524743 0.3211054662
H 2.1262261394 -2.4578054935 2.9879195618
H 2.7568105088 -3.9104923337 2.153933092
H 4.1340490233 -1.1832902745 2.3953277736
H 4.6248179639 -2.6702845314 3.2204006182
H 4.7709878506 -2.546968449 1.4571391506
H -0.2533285552 -0.1294359971 -2.7463343313
H 1.4378984058 0.2672692835 -2.2802740845
H -4.2840639843 2.3346167009 -1.5117906156
H -4.1394631434 3.5720704144 -0.2261352939
H -1.8990574585 4.2262432943 -1.2121909024
H -2.168380372 3.0620602383 -2.5180513048
H -3.2351639176 4.4646769123 -2.3545005818
H -3.419058404 -0.4001515787 1.9823536381
H -3.4153036918 -1.3411752663 0.4630622505
H -2.7705624385 -2.7522681123 2.4461898349
H -1.4547454093 -2.6416317928 1.2626988699
H -1.3949414657 -1.6714281941 2.740355364
*
