! pbe def2-sv(p) def2/J RI DEFGRID1 loosescf d4 GCP(DFT/SV(P)) printgap
%output
    printlevel normal
end
* xyz 0 1
C 1.880556959 -3.5450355482 -2.3259561606
C 3.1293859058 -2.9506599779 -1.6944214213
O 2.8755034805 -1.611873243 -1.2298826857
C 2.3311412543 -1.4543346086 -0.0405740248
O 2.1014407062 -2.348724271 0.7413296146
C 2.0205486553 0.0070487898 0.2368466708
C 1.1170908388 0.5629129848 -0.8682527267
H 1.6852834542 0.694275313 -1.79110395
C 0.492796654 1.8731371041 -0.4337642272
O -0.7091927667 1.9888881758 -0.2747382993
O 1.3722681596 2.8092842113 -0.2449489688
C 0.9249482453 4.0776234545 0.2896878183
C 0.8538787518 4.0171809783 1.8063998336
S -0.2453641299 -0.5784668974 -1.2967442155
P -1.5678152804 -0.2573627194 0.3165576786
S -1.064811039 0.3306578954 2.1303435507
O -2.950536004 0.3378310325 -0.2202896339
C -3.4457851712 1.6566792681 0.0100869042
O -1.9647753893 -1.8157376224 0.30357844
C -2.9181163917 -2.3528204156 1.2225198089
H 2.1090563777 -4.5288202272 -2.7218417385
H 1.0924649255 -3.6358642407 -1.581277988
H 1.5236541237 -2.9038899211 -3.1271177274
H 3.9308038498 -2.8378483616 -2.4242744805
H 3.4628044001 -3.5582293247 -0.8482938873
H 2.9479787954 0.5801322976 0.2630652961
H 1.5300000647 0.063929558 1.2109604563
H 1.6760310826 4.7905247022 -0.0488320356
H -0.0524448842 4.3130043609 -0.13803707
H 0.5214670339 4.9761893143 2.1890911976
H 0.1500642997 3.2491633287 2.1237722937
H 1.8301465919 3.7848265359 2.2218811535
H -3.0626423292 2.041209378 0.9562523682
H -4.5291738237 1.565108237 0.044373829
H -3.1361718783 2.3081312865 -0.8041166134
H -3.9253958184 -2.0545034275 0.9330915855
H -2.703112141 -2.0020870652 2.2344681941
H -2.8056959004 -3.4326338501 1.1664521716
*
