! pbe def2-sv(p) def2/J RI DEFGRID1 loosescf d4 GCP(DFT/SV(P)) printgap
%output
    printlevel normal
end
* xyz 0 1
C 3.6760392228 -2.1911113596 -2.4966072485
C 3.8298692909 -2.0604651226 -0.9946547778
O 3.8644028035 -0.6564497541 -0.6250314236
P 2.7378054274 0.0377877784 0.2302967612
S 3.0892227714 1.9422178013 0.4835225335
O 2.745976172 -0.8651310838 1.5437729188
C 2.2174877168 -0.4313665405 2.8090380372
C 0.7313988984 -0.1440336925 2.7519150754
S 0.9196938497 -0.4950413237 -0.7773395682
C 0.2925218414 1.1542603966 -1.1681905075
S -0.9398452517 1.7588035226 0.0152299565
P -2.4347334366 0.3516880169 -0.5021017744
S -2.6429203404 -0.0552800755 -2.4026860073
O -3.7640229508 0.9604216111 0.1032544447
C -3.8670901401 1.7036969742 1.340779349
C -3.497309734 0.8705981347 2.5496823727
O -2.0168911986 -0.896208029 0.4059373478
C -2.166546154 -2.2562646958 -0.0320481127
C -3.6042679165 -2.7130283168 0.1101919196
H 4.4611954925 -1.6337812351 -2.9997511966
H 3.7470942986 -3.2386201746 -2.7714875622
H 2.7109557451 -1.8050139981 -2.815924189
H 4.7830181487 -2.468396289 -0.6550236125
H 3.0101372664 -2.5512288028 -0.4657784593
H 2.4429918281 -1.2620760077 3.4796660556
H 2.7664128695 0.461270289 3.123281311
H 0.1933522182 -0.9886218255 2.3271936991
H 0.3652311779 0.047742637 3.7556171853
H 0.5480393679 0.7387118086 2.1398696393
H -0.1676717889 1.097415156 -2.1543415094
H 1.1161088008 1.8692557013 -1.1460879523
H -3.2268868533 2.5867137752 1.2648262902
H -4.9147845038 2.0080271616 1.363167759
H -4.1138955524 -0.0231851146 2.5941076958
H -2.450864515 0.5784242932 2.4973482728
H -3.6564395922 1.4603367061 3.4469866367
H -1.8362476907 -2.3315422837 -1.0728877891
H -1.4919532481 -2.8260856096 0.6081635935
H -3.9282765834 -2.6290942826 1.1439265364
H -4.2464433237 -2.0910153537 -0.5130637959
H -3.6907839237 -3.7455925357 -0.2124953218
*
