! pbe def2-sv(p) def2/J RI DEFGRID1 loosescf d4 GCP(DFT/SV(P)) printgap
%output
    printlevel normal
end
* xyz 0 1
C 3.1318519248 -3.9773225128 0.2660476409
C 2.7168051609 -2.5663701752 0.6314505373
O 2.2585459707 -1.9127166667 -0.567653171
C 2.070960994 -0.6155230415 -0.5399410698
O 2.2452194479 0.0921160811 0.4333764756
C 1.6481878773 -0.0662412253 -1.8894820239
C 0.4380765809 0.8627194313 -1.7527474713
H 0.3814867887 1.5272082255 -2.6176257697
C 0.5185657141 1.6988502474 -0.489797959
O -0.266700076 1.5568658673 0.432450119
O 1.4586654798 2.5924118689 -0.5508166941
C 1.6943461367 3.4270368093 0.6046101347
C 0.7521538107 4.6188526103 0.6193354201
S -1.1481927016 -0.0410426835 -1.7507751143
P -1.6965529525 -0.3946052332 0.2674553533
S -0.504954938 -1.1782188627 1.624950683
O -2.7487629333 0.7076843883 0.7241661892
C -2.6275875325 1.5241713655 1.8887142416
O -2.8469308969 -1.4622898332 -0.1057053586
C -2.5344759506 -2.7931768936 -0.5180567579
H 3.4693272108 -4.4911085541 1.1597182524
H 2.2878999614 -4.5130516888 -0.1573423287
H 3.9370560233 -3.9535085913 -0.4621987865
H 3.5471442548 -1.9846514869 1.0437615416
H 1.8970265839 -2.5534485316 1.3577586926
H 1.4222328276 -0.8856016705 -2.5698277168
H 2.4903282787 0.5123552082 -2.2755542806
H 1.5771600691 2.8107328891 1.4999798147
H 2.7328456888 3.7386383551 0.496044925
H 0.9936296834 5.2520920054 1.4663978568
H 0.8574806386 5.1908447368 -0.2982287818
H -0.2786587543 4.284985762 0.7139564275
H -3.5839266786 1.4712459639 2.4053680086
H -2.4107514573 2.5457757739 1.5812024899
H -1.8278522268 1.1567544589 2.5343043625
H -1.7737389988 -3.2186765291 0.1404469408
H -2.1798385925 -2.7957725965 -1.5491056619
H -3.4629597213 -3.3521529862 -0.4325859971
*
