! pbe def2-sv(p) def2/J RI DEFGRID1 loosescf d4 GCP(DFT/SV(P)) printgap
%output
    printlevel normal
end
* xyz 0 1
C 3.1565499489 -2.9634272495 -1.0518585998
C 3.7170022461 -1.8081757296 -1.8517037931
O 3.9049630415 -0.6129001788 -1.0535845624
P 2.8183830619 0.1151657278 -0.1839105967
S 3.3091720341 1.9670013034 0.2175516898
O 2.7335203098 -0.8241535086 1.0994862891
C 2.1359368125 -0.4354992735 2.3493632774
C 0.9372530365 -1.3141596229 2.6493660908
S 1.0070921559 -0.1248094299 -1.3001794196
C 0.2490677013 1.4675781614 -0.9148004166
S -0.6037988888 1.4738123981 0.6839827345
P -2.2249162648 0.2573916036 0.0683159288
S -2.9092522334 0.6223329475 -1.7384282105
O -3.2379110818 0.3736417062 1.2842426306
C -3.9637269326 1.5789756584 1.5950479742
C -5.2937342888 1.6219618187 0.8672763581
O -1.6477710509 -1.1971143529 0.29462534
C -2.1268473459 -2.3362505367 -0.4495438761
C -3.5336671907 -2.7082303021 -0.0333305915
H 3.1238384481 -3.847591484 -1.6809293906
H 3.7811248031 -3.1589672165 -0.1843252077
H 2.1478948996 -2.7298348797 -0.7164959758
H 3.0599154151 -1.5571227031 -2.6882911391
H 4.7221191541 -2.0193945537 -2.2195849972
H 2.9175306065 -0.5694853848 3.1005305959
H 1.8603625389 0.6237563879 2.3099367576
H 0.1621345667 -1.1796340732 1.898951875
H 1.2368488427 -2.3581278601 2.6627821891
H 0.5344894717 -1.0423508394 3.6196362327
H -0.4719602891 1.6756718884 -1.7058874711
H 1.024012093 2.2338863437 -0.8629694121
H -4.1046778834 1.5372760144 2.6766987772
H -3.3477063717 2.4469646129 1.342494603
H -5.8837671781 0.7437792077 1.1143452475
H -5.8358986806 2.5134585946 1.1655914161
H -5.1366498542 1.6475030747 -0.2088418343
H -2.0844603588 -2.0979361792 -1.5170305812
H -1.4096681781 -3.124195851 -0.2174183821
H -3.5769203331 -2.8723328323 1.039997548
H -4.2167950973 -1.9001161107 -0.2931345659
H -3.8393407099 -3.6108388374 -0.5528405658
*
