! pbe def2-sv(p) def2/J RI DEFGRID1 loosescf d4 GCP(DFT/SV(P)) printgap
%output
    printlevel normal
end
* xyz 0 1
C 3.746231575 -2.2227607309 1.343150978
C 2.4336904099 -2.1349681816 0.591942446
O 1.9340298925 -0.7846429359 0.5964294618
P 2.4853365075 0.3281674184 -0.4098966544
S 3.3407985902 -0.3959658621 -2.0109161352
O 3.4686840698 1.2720880165 0.3941047342
C 3.0874139182 2.2644849163 1.3756303807
C 2.3323682255 1.6694869266 2.5454909417
S 0.75437995 1.5091839961 -0.7131365695
C -0.0484138196 0.3520202219 -1.8508623825
S -0.8604687375 -1.0146505185 -0.9970722818
P -2.3587828947 0.1776865047 -0.0389745621
S -2.9938130425 1.6627277895 -1.1490486111
O -1.8050246997 0.6719457476 1.3482396563
C -1.7816573085 -0.0945755739 2.5800170895
C -0.8970091931 -1.3187038743 2.483021225
O -3.4564052193 -0.8875655499 0.3808857758
C -4.3148717468 -1.4965196974 -0.6064890946
C -5.490895235 -2.1165560901 0.1202313744
H 4.0972794844 -3.2496302431 1.3383747919
H 4.4881808219 -1.5914738328 0.8543280853
H 3.6202499895 -1.8899593929 2.3697951704
H 1.646840541 -2.7214714251 1.0677090655
H 2.5595934539 -2.4603698062 -0.4453866022
H 4.0439221242 2.6890142369 1.6849282671
H 2.488581363 3.0292235224 0.8736429537
H 2.9079189784 0.865822763 2.9969163236
H 2.1585714827 2.4453568106 3.2847054451
H 1.3728289915 1.2796577249 2.2116417534
H 0.6978712203 -0.0762628792 -2.5214257732
H -0.7966126106 0.9251328125 -2.3993419314
H -1.4009362025 0.6229793466 3.308778801
H -2.8077532457 -0.3698300823 2.8288903744
H -0.8415893399 -1.7938770851 3.4574693809
H -1.308053635 -2.0248097279 1.7638768684
H 0.1029016153 -1.0364183056 2.1641481591
H -4.6390545702 -0.7231405403 -1.3104883548
H -3.7331432639 -2.2493284743 -1.144802509
H -5.1411563783 -2.8605124176 0.8298148028
H -6.0459620548 -1.3507295632 0.6546579092
H -6.1448200881 -2.5910194757 -0.6039471846
*
