! pbe def2-sv(p) def2/J RI DEFGRID1 loosescf d4 GCP(DFT/SV(P)) printgap
%output
    printlevel normal
end
* xyz 0 1
C 2.975990179 -2.9940572389 -1.318452696
C 4.0812329087 -2.2222719774 -0.6299033176
O 3.893810764 -0.7879562317 -0.7145125576
P 2.7016153244 0.0303264158 -0.096103194
S 3.1892858779 1.9244170945 0.0068486395
O 2.4568564918 -0.7676926502 1.260543324
C 1.3538657833 -0.5836293069 2.1630965382
C 1.4472519188 0.7177965805 2.9339053967
S 0.9797355531 -0.3759186642 -1.3104354314
C 0.2810689141 1.2856202167 -1.3709603571
S -0.7099950743 1.7024735848 0.0887630559
P -2.2848532055 0.3486906839 -0.3255594154
S -2.8298628251 0.1443395199 -2.1889583022
O -3.4707024204 0.8633623034 0.5873237718
C -3.3080460764 1.0756261115 2.0137622499
C -4.6872680432 1.2725396309 2.6071048996
O -1.7034852909 -0.9688324746 0.3788141638
C -2.0580221091 -2.2891378154 -0.0751009041
C -3.4836782516 -2.634298009 0.3037171832
H 3.2153926493 -4.0527052468 -1.2972567211
H 2.0271326827 -2.8349760745 -0.8089702132
H 2.8724151599 -2.6708193351 -2.3511348017
H 5.0433660248 -2.374665033 -1.1212461889
H 4.1542078773 -2.494658952 0.4243560135
H 0.4187291545 -0.6359627377 1.5973362486
H 1.4253631056 -1.4437462186 2.8319948274
H 2.413910268 0.7936404952 3.4251270186
H 1.3309932866 1.5683835856 2.2649989808
H 0.6606790513 0.7489448055 3.6809297731
H -0.3520645379 1.3302076757 -2.2567659933
H 1.0900412841 2.0165516418 -1.4141839213
H -2.8046495925 0.2049694706 2.4409765282
H -2.6801059333 1.9593976836 2.1528480389
H -5.1744780134 2.1227073087 2.1386607274
H -5.2972172185 0.3886572181 2.4437348044
H -4.593796395 1.4543058884 3.6728544579
H -1.9224716648 -2.3323198868 -1.1600038902
H -1.3357850471 -2.9439383878 0.4140511786
H -3.6175081259 -2.5734861831 1.380654549
H -4.168384661 -1.9369810542 -0.1791400893
H -3.7128221626 -3.6409941988 -0.0309772871
*
