! wb97x-v def2-tzvp def2/J RIJCOSX DEFGRID2 scfconv7 GCP(DFT/TZ) printgap
%output
    printlevel normal
end
%cpcm
    smd true
    smdsolvent "water"
end
* xyz 0 1
C -2.426160034936473 -0.7065259151042073 -8.700750410071487e-05
C -2.426180503033013 0.7064488717189258 4.644818922040076e-05
C -1.2401068518562308 1.4018097184665645 9.526340978451876e-05
C -1.9685969384048817e-05 0.7160506542982952 2.8825160406142466e-05
C 1.2400534594598245 1.4018432107757397 -7.929662657529052e-05
C 2.426141420710546 0.7065125796559693 -0.00011447811898011872
C 2.4261593984427487 -0.7064664775106498 2.4021450351173138e-05
C 1.240088355827124 -1.40182151573882 9.866391663756507e-05
C 1.9001779419914858e-07 -0.7160589423758843 3.7489295303485495e-05
C -1.2400666801354097 -1.4018510872116843 -5.563002582426118e-05
H -3.370583289792425 -1.241793166558753 -0.00019707350615146636
H -3.370620547781576 1.2416880632782066 9.0763921167913e-05
H -1.2357315951307692 2.48834720820735 0.00017553856473759313
H 1.23564807734039 2.4883807534058033 -0.00016275059297573514
H 3.370572224467176 1.2417684887880056 -0.00024498250177275825
H 3.3706064324991174 -1.2416926959722474 7.394135416641264e-05
H 1.2356963867872353 -2.4883576100340465 0.00018771806953986908
H -1.2356609196490047 -2.488386811777615 -0.00012411521177608557
*
