! pbe def2-sv(p) def2/J RI DEFGRID1 loosescf d4 GCP(DFT/SV(P)) printgap
%output
    printlevel normal
end
* xyz 0 1
C 3.0482524926 0.2758319838 -3.3156444717
C 3.4273316168 0.7496714525 -1.9269271266
O 2.9939885088 -0.2354486344 -0.9620434217
P 2.1592905537 0.0859902951 0.3385223059
S 1.2044493024 1.8080880958 0.3313308229
O 3.2771926372 0.0380033862 1.4697258389
C 3.0597128561 0.5434574287 2.7972910847
C 2.0365305694 -0.2789010328 3.5541918948
S 1.2103728796 -1.7837098517 0.5816356682
C 0.4559810452 -1.9837017444 -1.0677110105
S -0.2969967283 -0.4793481154 -1.742420566
P -1.8705511232 -0.1752095096 -0.3604190117
S -1.584586941 -0.089077461 1.5814084797
O -2.7739132345 -1.3881270471 -0.8286164623
C -3.8547928317 -1.9027384507 -0.0248399429
C -5.024884616 -0.9430359879 0.015822267
O -2.5933457364 1.0810146148 -1.005747012
C -2.3571055213 2.4510760727 -0.6225186601
C -3.4165793045 2.9179142748 0.356703874
H 3.4063133671 0.9953472925 -4.0445718089
H 3.498856033 -0.6920728877 -3.5149607765
H 1.9667915024 0.1892254286 -3.3991445068
H 2.9541028944 1.7089459148 -1.6913255442
H 4.5092359399 0.8399986911 -1.8134711381
H 4.0449122978 0.4919812221 3.262475943
H 2.7354231508 1.5867966484 2.7223025795
H 2.3148666732 -1.3299400321 3.5471141136
H 1.9741649536 0.0730142601 4.5788277969
H 1.0539783536 -0.1759623297 3.0907342269
H -0.2969377614 -2.7623543205 -0.9649757969
H 1.2278376717 -2.2732437812 -1.7774734153
H -4.1176959221 -2.8434084251 -0.5104811306
H -3.4759119194 -2.0936116225 0.9845695395
H -5.3317531418 -0.6829970933 -0.9938282616
H -5.8544485007 -1.4070851824 0.5399844734
H -4.7368441213 -0.0340531478 0.5415663489
H -1.3574611559 2.5486000409 -0.1903197
H -2.4018636429 3.0112610968 -1.5580633467
H -3.341162361 2.3551463064 1.2850860932
H -3.2606159484 3.9700772131 0.5715526465
H -4.4071743866 2.7781484669 -0.0675022501
*
