! pbe def2-sv(p) def2/J RI DEFGRID1 loosescf d4 GCP(DFT/SV(P)) printgap
%output
    printlevel normal
end
* xyz 0 1
C 4.1252639089 -1.862162476 -1.90084906
C 4.6450800735 -1.2526394581 -0.6146556375
O 3.5931814972 -0.9892977151 0.3293502004
P 2.4824732617 0.1205826756 0.0838985099
S 3.1359411458 1.7642562935 -0.7550087345
O 1.9387102919 0.4030382768 1.5358362828
C 1.1087479815 -0.4647432613 2.3448358793
C 1.6982434775 -1.8469759872 2.523308808
S 0.9212474651 -0.9023159433 -0.9556360128
C 0.1352085188 0.5739971666 -1.6293381507
S -0.7123714815 1.5626250025 -0.3657226233
P -2.4586885305 0.3702101312 -0.2695917315
S -3.1544162114 -0.3688378545 -1.9356634655
O -3.5245217992 1.3201043798 0.4187840374
C -3.2682647787 1.9896296979 1.6792528047
C -4.5998109744 2.4525598272 2.2330266311
O -2.0281198409 -0.6915465939 0.8500172312
C -2.5941529134 -2.0217796498 0.9138341333
C -1.6803426752 -3.029630442 0.2481710897
H 3.5317813772 -1.1308427807 -2.4472935113
H 4.9650907629 -2.1624864367 -2.5191529684
H 3.5056176806 -2.7293659784 -1.6876339275
H 5.169916605 -0.3140838968 -0.8188678755
H 5.3053202926 -1.9387142234 -0.0822839898
H 1.042224795 0.0719493425 3.2924716855
H 0.1190965614 -0.517459026 1.8830532338
H 2.7040690045 -1.7773824269 2.9289423666
H 1.0732345267 -2.4137488981 3.2068938751
H 1.7431841231 -2.3639725146 1.5665959801
H -0.5891537583 0.2466484506 -2.3760852638
H 0.8974120872 1.2212501792 -2.064704131
H -2.7725226656 1.2882606873 2.3551655231
H -2.5999870646 2.8315807068 1.481095534
H -4.4327905862 2.9822633707 3.1653167101
H -5.0850713389 3.1165707814 1.5235315081
H -5.2487647411 1.6001968561 2.4129185586
H -2.7037095243 -2.2232428466 1.9806162158
H -3.5774051305 -2.0147603777 0.4351278759
H -2.1027934951 -4.0221968465 0.3648604211
H -1.5855964396 -2.8061747881 -0.8123022524
H -0.6925313299 -3.0014936177 0.6978846697
*
