! pbe def2-sv(p) def2/J RI DEFGRID1 loosescf d4 GCP(DFT/SV(P)) printgap
%output
    printlevel normal
end
* xyz 0 1
C 4.8672790692 -1.5492138461 0.664227141
C 4.4974945232 -1.5181990602 -0.8046878462
O 3.0714578909 -1.4334105314 -1.0045593121
P 2.2262227578 -0.17995072 -0.5294984566
S 3.0876573324 1.5780782663 -0.6505338559
O 1.7392270243 -0.5918773339 0.9302798626
C 1.6877598103 0.2922107519 2.0716253044
C 0.5821339066 -0.1818304506 2.9917286622
S 0.5825656809 -0.5553321305 -1.8061185753
C -0.0973146259 1.1287329509 -1.7599386037
S -0.7192151509 1.5845237407 -0.1302692275
P -2.4478361577 0.315613764 -0.1065812726
S -3.192950738 -0.087325768 -1.8680697324
O -3.4739814552 1.0612560727 0.8206508761
C -3.3739275261 1.2209699879 2.260410536
C -2.5060412343 2.4044244567 2.6342286786
O -2.043665411 -0.9457497453 0.7815809621
C -1.5903279107 -2.2082208343 0.2643638913
C -2.3551847572 -3.3156232095 0.9616877407
H 4.6296737688 -0.5900537076 1.1239568736
H 4.3168758824 -2.3358093463 1.17403043
H 5.9330057633 -1.7306722136 0.7634479034
H 4.7760452582 -2.4421429971 -1.3132176913
H 4.9665745212 -0.6636962351 -1.3022605049
H 2.6599269265 0.244325681 2.5685057217
H 1.5166012023 1.3156976062 1.7256361465
H -0.3745754709 -0.1470099082 2.478387892
H 0.7741917455 -1.2027365393 3.308875204
H 0.5444759295 0.4653484975 3.8617069659
H -0.9131520109 1.1540703124 -2.4822798557
H 0.6829565274 1.8467096583 -2.010780133
H -4.4093447644 1.3763775661 2.5675413991
H -2.9951335785 0.2930413771 2.6910192498
H -2.5347971226 2.5361506904 3.711306384
H -1.4763058554 2.2433177718 2.3222158383
H -2.8745182692 3.3061920708 2.1530537224
H -1.7570772799 -2.2339223995 -0.8175189348
H -0.5170795297 -2.2752735614 0.462917791
H -3.4165136921 -3.229011915 0.7429394472
H -1.9949066249 -4.2740935162 0.6026572435
H -2.2084480327 -3.2550415175 2.0361665481
*
