  26
        -33.45222483
 C         -2.5384014428        2.2032578723        0.0330280745
 C         -1.6833455745        0.9627760720       -0.1994028153
 C         -2.4052768136       -0.3093600333        0.2379098484
 C         -1.6467649606       -1.5897488654       -0.1090846421
 C         -0.2931101081       -1.6975940878        0.5991964955
 C          0.7871796124       -0.9225252680       -0.1102899132
 O          0.9374062002       -0.8823921865       -1.3131553252
 O          1.5989250384       -0.3177064118        0.7525073794
 C          2.7084114268        0.4368172519        0.2363178189
 C          2.3041545108        1.8704247069       -0.0720870816
 H         -2.0050738172        3.0990330595       -0.2753398027
 H         -3.4624550861        2.1400024851       -0.5369004873
 H         -2.7906654076        2.2974089431        1.0866963782
 H         -0.7503322447        1.0638211069        0.3585343611
 H         -1.4269441320        0.8857874644       -1.2593185281
 H         -2.5772959641       -0.2715659373        1.3159710371
 H         -3.3806692124       -0.3450095729       -0.2521974180
 H         -2.2607334047       -2.4454124370        0.1737151620
 H         -1.4746829928       -1.6357426171       -1.1867943591
 H         -0.3511247334       -1.3585075470        1.6327750832
 H          0.0328077367       -2.7402645559        0.5942759369
 H          3.4589842924        0.3973170263        1.0263273037
 H          3.0779819515       -0.0607955193       -0.6654417777
 H          3.1768827530        2.4277867529       -0.3961652856
 H          1.5607590304        1.8856940719       -0.8661589303
 H          1.8866210221        2.3415577107        0.8138727573
