! wb97x-v def2-tzvp def2/J RIJCOSX DEFGRID2 scfconv7 GCP(DFT/TZ) printgap
%output
    printlevel normal
end
* xyz 0 1
C -1.9007955511394659 -4.709798885721454e-08 1.3845466709447727e-05
C -1.2035957975598552 -1.206671894131538 1.627998171033729e-05
C 0.18999961172368976 -1.217764905746362 6.440755798436793e-07
C 0.8482491741756694 -1.500762973953651e-07 -1.314521520624146e-05
C 0.18999968626573482 1.2177646454464628 -2.688764234959713e-05
C -1.2035957283520702 1.2066717474440758 -1.5870257915143204e-05
F 2.209683860788401 -1.909231634888839e-07 -3.59834296165672e-05
H -2.9855930106862134 -6.009130554433569e-08 2.4246479282228944e-05
H -1.7427204145322082 -2.1485304633993896 3.363261389245071e-05
H 0.755139505762141 -2.1435252486901053 5.542161903203112e-06
H 0.755139670898409 2.14352493920946 -4.427937701275504e-05
H -1.7427202334843064 2.148530384047536 -1.575158285055115e-05
*
