! r2scan-3c def2/J RI DEFGRID2 scfconv6 printgap
%output
    printlevel normal
end
* xyz 0 1
C -3.62258e-05 0.8326977932 -4.668e-06
Cl -1.4616499013 -0.1817853384 2.7264e-06
Cl 1.4616664639 -0.1817720823 -3.4133e-06
H 9.85194e-05 1.4324772525 0.9073116093
H -0.0002494125 1.4325570174 -0.9072318196
*
