! pbe def2-sv(p) def2/J RI DEFGRID1 loosescf d4 GCP(DFT/SV(P)) printgap
%output
    printlevel normal
end
* xyz 0 1
C 3.2537321739 -1.7990731618 1.5944647111
C 2.9948781968 -2.3756005525 0.2125563814
O 2.7518412568 -1.3120781896 -0.7286197798
C 1.5382505182 -1.1029933316 -1.1861630932
O 0.5601245516 -1.7624222794 -0.8859202718
C 1.5001333978 0.0642122468 -2.1494554994
C 0.3750373307 1.0355452272 -1.7900957349
H 0.3351937994 1.837811807 -2.5322041853
C 0.5466391017 1.6540295799 -0.4161091708
O -0.3837739942 1.7510560555 0.3643010713
O 1.7689780247 2.0309240036 -0.1790893769
C 2.0738718491 2.6124113825 1.109125358
C 1.7273875347 4.0911024458 1.1353010992
S -1.2870272815 0.2736649992 -1.837749498
P -1.5777195255 -0.4177473295 0.14610516
S -0.4050710281 -0.778103134 1.6948714124
O -2.8960346329 0.3734951463 0.6195154424
C -2.9397944859 1.4279104232 1.5767407373
O -2.2947342541 -1.7452564433 -0.389831131
C -2.8262756785 -2.729032136 0.4981384586
H 2.3561687274 -1.311467559 1.9715220713
H 3.5226258961 -2.6026599522 2.2716806635
H 4.0635356667 -1.0768555702 1.5513364804
H 2.1284031243 -3.0425479099 0.2221400551
H 3.8731439982 -2.8987204693 -0.1694637132
H 1.3089847443 -0.329463756 -3.1488558789
H 2.4615080677 0.5765355012 -2.124642386
H 1.5223785982 2.0625931436 1.8771923732
H 3.1454448033 2.4504049346 1.222155767
H 0.6551757229 4.2293790934 1.0177597459
H 2.0315250795 4.5092492066 2.088964846
H 2.2443378537 4.6114102435 0.3339954822
H -2.1783038252 1.2697413431 2.3425611373
H -3.9354280575 1.3919803815 2.0130517581
H -2.7667398547 2.3809378539 1.0804713452
H -2.1106976254 -2.9427471009 1.2954852254
H -2.9911207736 -3.6153409538 -0.1093701296
H -3.7633036943 -2.374938369 0.9287341812
*
