! pbe def2-sv(p) def2/J RI DEFGRID1 loosescf d4 GCP(DFT/SV(P)) printgap
%output
    printlevel normal
end
* xyz 0 1
C 4.6424785293 0.3373187006 -1.8489278641
C 4.5490011202 0.6682003321 -0.3733927126
O 3.6578478594 -0.2169647193 0.3255091837
P 2.088797741 -0.2256853535 0.0816875238
S 1.2899661656 1.5542711198 -0.1708384531
O 1.5742043501 -1.0751053484 1.3127006292
C 1.1716420619 -0.4982737388 2.5709542241
C 2.3140878317 0.2168759217 3.2602131916
S 1.8116288918 -1.6470199266 -1.4475242377
C 0.087026211 -1.2726350406 -1.8467865969
S -1.0544212422 -1.6227158355 -0.4697704963
P -2.1262582485 0.1990801887 -0.4052657869
S -1.970555158 1.4060948241 -1.9340945253
O -1.661790942 0.7982809409 1.005860005
C -1.7681698261 2.2048237916 1.2867096282
C -3.211606666 2.6413933508 1.4237257008
O -3.6391616723 -0.2525873118 -0.2381962064
C -4.1221878874 -1.423846739 0.4577443131
C -3.6500829643 -1.4924981005 1.8948532293
H 4.8810030424 -0.714370933 -1.9860563364
H 3.6924447383 0.5472723492 -2.3392235804
H 5.4152020817 0.9469249344 -2.3063187283
H 4.1974880869 1.6954924369 -0.23233406
H 5.5053758344 0.5291645137 0.1324216637
H 0.3373953633 0.1848148029 2.3840689345
H 0.8233901211 -1.3577179644 3.1458381053
H 1.9918475942 0.5505886957 4.2416471799
H 3.1649338249 -0.4512713111 3.3648623516
H 2.6170344596 1.0830338057 2.6723833695
H -0.1715786299 -1.9217247293 -2.6796361196
H -0.0193808483 -0.2197842036 -2.1246671466
H -1.2122880358 2.3366990783 2.2165001239
H -1.2664836113 2.7587742677 0.4860387931
H -3.7381064533 2.4636790901 0.4859732391
H -3.7032608178 2.0847408553 2.2170959265
H -3.2450213098 3.701865925 1.6525576611
H -5.2066577733 -1.3220972342 0.3926831563
H -3.7983869613 -2.3073163659 -0.0979570969
H -3.9564458671 -0.6035871724 2.439817206
H -4.0816086297 -2.3690513438 2.3678784224
H -2.5643614758 -1.5713464141 1.9277011425
*
