! pbe def2-sv(p) def2/J RI DEFGRID1 loosescf d4 GCP(DFT/SV(P)) printgap
%output
    printlevel normal
end
* xyz 0 1
C 3.7625549836 -0.7237842977 -2.72660817
C 4.2537156653 0.3938288562 -1.8289860794
O 3.7395159469 0.2954549442 -0.4902009708
P 2.1895502383 0.4311614427 -0.1268208719
S 1.2420986433 1.8081013245 -1.1372087077
O 2.2838887319 0.74026313 1.4102993207
C 2.9255819461 -0.147067139 2.361110835
C 2.4625301789 0.2546969364 3.7449259265
S 1.4460049291 -1.5626049367 -0.2890072731
C 0.106255207 -1.3173710239 -1.4984688347
S -1.5243517663 -1.8079903828 -0.8823091861
P -2.002650819 -0.1559375487 0.3250176908
S -0.8564797819 0.3364372136 1.8287436759
O -3.4579269338 -0.4850404443 0.8582313015
C -4.5621022649 -0.8413087347 -0.0106634304
C -4.8209537245 -2.333275529 0.0445222852
O -2.1437875577 0.9467180959 -0.828632751
C -2.1433269325 2.3538670335 -0.537393826
C -3.4546447971 2.7954140638 0.0786483739
H 4.2932607948 -0.6794262188 -3.6722197027
H 3.9365076782 -1.6897372893 -2.2593168465
H 2.696741303 -0.6058131272 -2.9161749699
H 3.9663498831 1.3683107286 -2.2358061904
H 5.3352890518 0.3539690552 -1.6916025439
H 2.633921347 -1.1756377046 2.128328947
H 4.005621929 -0.0386237118 2.2423050887
H 1.3783720541 0.1863660481 3.8014986549
H 2.9067643865 -0.4097862714 4.4785517774
H 2.7558522779 1.2791046768 3.9545844768
H 0.3001981681 -1.971717718 -2.3444776204
H 0.086009449 -0.2653450952 -1.7964168019
H -5.4117072779 -0.2791747562 0.3813739452
H -4.337550348 -0.5129629932 -1.0284715765
H -3.9715690008 -2.8825303081 -0.3558086676
H -4.9854696923 -2.6424658145 1.072924725
H -5.7032073672 -2.5616022807 -0.5449987697
H -1.3046915983 2.5733746792 0.1318827977
H -1.9594224177 2.826165158 -1.5037253938
H -3.4332583688 3.8701151308 0.2293980477
H -4.2842291976 2.5394390749 -0.5752875754
H -3.5927975327 2.3058757607 1.0423711744
*
