! pbe def2-sv(p) def2/J RI DEFGRID1 loosescf d4 GCP(DFT/SV(P)) printgap
%output
    printlevel normal
end
* xyz 0 1
C 4.6525733512 0.7323704125 -1.2009011914
C 4.4726829961 0.2475630432 0.2232177173
O 3.2677697265 -0.512824417 0.382360753
P 1.8252147307 0.1793243248 0.3371552502
S 1.8070391552 1.9441379151 1.1946801227
O 0.929742163 -0.9715229592 0.9580242624
C 1.3965104359 -1.8562167008 2.0028973077
C 1.7818686349 -1.1133460088 3.2650392793
S 1.290293238 0.137136483 -1.7257840088
C 0.2222930769 -1.3211840937 -1.9082809338
S -1.5119104836 -0.916387262 -2.305712538
P -2.2082989461 -0.2477237215 -0.4394722981
S -4.0857572892 0.3008497956 -0.3632174559
O -1.158476621 0.8604805002 0.0555181445
C -1.449757627 2.2581898657 -0.1211301391
C -1.3897971651 2.674569279 -1.5766622676
O -1.8219505927 -1.5066151451 0.4493670986
C -2.4990253791 -1.7799340154 1.69416078
C -2.2760886882 -0.6874062543 2.7184885604
H 5.6115468558 1.2319514477 -1.2923045193
H 4.6114514271 -0.1023283767 -1.895482636
H 3.8604405468 1.4369614338 -1.4547276
H 4.4412548493 1.096209061 0.915017545
H 5.2645780378 -0.4426146254 0.5176816171
H 0.5448523601 -2.5176260913 2.1718731509
H 2.2427407414 -2.4290318289 1.6184019008
H 0.954333259 -0.506269485 3.6252497446
H 2.0592256739 -1.8298828214 4.0320100012
H 2.6268735149 -0.4543312075 3.0710898793
H 0.2538666307 -1.9193630084 -1.0038461792
H 0.5838273474 -1.8703368808 -2.7735785927
H -2.4442570259 2.4547222879 0.2917480968
H -0.6918444973 2.7680719274 0.4765583112
H -1.5786360078 3.740779432 -1.6482805073
H -0.4116358679 2.4557336736 -1.9988518793
H -2.1507022806 2.1406209104 -2.1469060293
H -3.5668478729 -1.8967172657 1.4851224372
H -2.0789913385 -2.7344549339 2.0144948585
H -2.8022085801 0.2174137895 2.4155714402
H -2.6548227105 -1.0094039257 3.6833209262
H -1.2168182784 -0.4576186174 2.7991006899
*
