! pbe def2-sv(p) def2/J RI DEFGRID1 loosescf d4 GCP(DFT/SV(P)) printgap
%output
    printlevel normal
end
* xyz 0 1
C 3.9769250818 0.3497539402 -2.7842501467
C 3.0328824908 -0.4430927994 -1.9051883822
O 2.495978743 0.4540820197 -0.9024818468
P 2.0212871221 -0.0605656461 0.5157513313
S 1.1364579824 1.3327226777 1.5589848439
O 3.3197198452 -0.6692805147 1.2358751648
C 4.1987766243 0.1369035416 2.0405788316
C 5.0381989841 1.072750299 1.1942035965
S 1.0430581142 -1.907913522 0.2157853803
C -0.3216639154 -1.7000059445 1.4040774515
S -1.9632732717 -1.6975329577 0.6369278713
P -1.9363683277 0.161782032 -0.4074257935
S -0.546887204 0.4418862407 -1.7558819621
O -1.9502254435 1.2954114158 0.678717098
C -2.9143537968 1.3832296366 1.7586421345
C -4.0574653739 2.3017565022 1.3810881374
O -3.4133567514 0.1868041725 -0.9875627839
C -3.8014262848 -0.6652870996 -2.0860454802
C -5.1052701181 -0.1355851227 -2.647045083
H 4.3507492079 -0.2947968537 -3.5730475715
H 3.4454382075 1.1884021446 -3.2251677058
H 4.811259084 0.7297194326 -2.2010641677
H 3.5420407183 -1.2716264893 -1.4036818632
H 2.1843340413 -0.8278851304 -2.4774767951
H 3.5915660794 0.7030976376 2.7542699582
H 4.8128102206 -0.592168733 2.5710906955
H 5.616860326 0.5082812347 0.4672496467
H 4.3904933969 1.773089313 0.6666117795
H 5.7130114389 1.6308791418 1.8356329628
H -0.1697619876 -0.7647597148 1.9496044751
H -0.3171020723 -2.5571734126 2.0721144008
H -3.2750407488 0.3781025927 1.9946939546
H -2.3380291038 1.7811078361 2.5966073313
H -3.672669214 3.2802473445 1.1067531147
H -4.6067593387 1.8913612988 0.5380787803
H -4.7243351344 2.403574061 2.2314812674
H -3.0034299806 -0.6490126937 -2.8355157265
H -3.913363629 -1.6827421198 -1.7026279663
H -5.8727082444 -0.1460704785 -1.878637865
H -4.9730530822 0.8828374194 -3.0015566
H -5.4168399271 -0.7647944224 -3.4741125835
*
