! pbe def2-sv(p) def2/J RI DEFGRID1 loosescf d4 GCP(DFT/SV(P)) printgap
%output
    printlevel normal
end
* xyz 0 1
C 4.9464314026 0.3112282532 -0.8691259505
C 4.4623978534 -1.0074104249 -1.4492405761
O 3.0231273377 -1.0729416061 -1.4482209414
C 2.4156998802 -1.5735796503 -0.3874069522
O 2.9829768404 -2.0172240017 0.5836042375
C 0.9069909544 -1.5822760954 -0.5629093889
C 0.3947912048 -0.2266971181 -1.041677293
H 0.9217773946 0.0612867248 -1.9569460203
C 0.5860742922 0.8712859132 -0.0133648407
O -0.2852124831 1.6739379724 0.255945266
O 1.7787526444 0.8453468788 0.5181603523
C 2.0864418718 1.8135918309 1.5441844927
C 2.540486219 3.1313831919 0.9398259468
S -1.3645023447 -0.2703909038 -1.509365856
P -2.333510124 0.0085257121 0.3633578066
S -1.4387409408 -0.5887572282 2.002739905
O -2.9589831697 1.4535737815 0.4684670629
C -3.6680926816 2.0766702057 -0.6200079807
O -3.6819798054 -0.8199109367 0.0754378811
C -3.6786801193 -2.2463334714 -0.0222969936
H 4.5288780509 1.1425688852 -1.4306212897
H 4.6377126643 0.3924920532 0.170142779
H 6.0294306138 0.3511610942 -0.921804862
H 4.8496553547 -1.8501976423 -0.8699268912
H 4.7401325121 -1.1068759808 -2.4989477711
H 0.4530065589 -1.8609763481 0.3903451963
H 0.6590600223 -2.3354936066 -1.31325158
H 1.1948867209 1.9507433314 2.1631423528
H 2.8762856435 1.3403220249 2.1281262844
H 2.8124883068 3.8109601991 1.7405817604
H 3.4012390781 2.9745977927 0.2958408011
H 1.7338728674 3.5749027419 0.3606600447
H -2.9864321329 2.2460463628 -1.4533578061
H -4.0234244113 3.0219290405 -0.2181424154
H -4.5001165381 1.4481208783 -0.9327537542
H -3.2388011429 -2.551441732 -0.9715712268
H -4.7219364774 -2.5467413295 0.0315016295
H -3.1163338237 -2.6776103598 0.8077461813
*
