! pbe def2-sv(p) def2/J RI DEFGRID1 loosescf d4 GCP(DFT/SV(P)) printgap
%output
    printlevel normal
end
* xyz 0 1
C 5.3212686841 -1.0417559858 -2.1395762961
C 4.2230947266 -0.0287446548 -1.8896138313
O 3.3621169875 -0.5596457911 -0.8612441473
P 1.9712328328 0.1584444602 -0.5051900633
S 0.9198170582 0.611478588 -2.0915099966
O 2.3647760762 1.4555397664 0.3154227835
C 3.2853478348 1.4648876588 1.4343231595
C 2.5726195911 1.2141184238 2.7478649744
S 1.2678840902 -1.3458352051 0.7857630792
C -0.0504475859 -2.0312770945 -0.2680694154
S -1.6998244081 -1.8965538205 0.4616761166
P -2.0394710478 0.2056037167 0.3112822771
S -0.7419126778 1.4449084711 1.0946127117
O -3.5288500035 0.3140482733 0.8495375513
C -4.0125715301 -0.2540195432 2.0832444949
C -3.1420558307 0.087374788 3.2734666199
O -2.2034590757 0.5263058363 -1.2212523607
C -3.1292040379 -0.1505087819 -2.105936374
C -4.3904405666 0.6692703438 -2.2846118067
H 5.8869477596 -1.2111162163 -1.2279910821
H 4.8883677745 -1.9832683718 -2.4643229082
H 5.9840065121 -0.6642713902 -2.9113297408
H 3.6200230707 0.1441606401 -2.7874016764
H 4.6273128254 0.9303828708 -1.5507265248
H 4.0662388752 0.7195662087 1.2590551098
H 3.7106821393 2.4697092176 1.4031176437
H 3.2487321064 1.4386144389 3.5665696655
H 1.6943078441 1.851951066 2.8163856643
H 2.2513380043 0.177835914 2.8236808264
H 0.1304339819 -3.0967473393 -0.3827286101
H -0.0279919081 -1.5132331518 -1.2308122072
H -5.0125592429 0.1711505016 2.1858827846
H -4.0791505945 -1.3372249871 1.9508723776
H -3.0258141526 1.1650503954 3.3625344188
H -3.598791544 -0.302860711 4.177190536
H -2.153403668 -0.3545119855 3.1552906031
H -2.5806521639 -0.2501245634 -3.0451602776
H -3.3541191062 -1.1402328688 -1.6980112693
H -4.9079065326 0.7755601835 -1.3348727242
H -4.1394590018 1.658226134 -2.6584791391
H -5.0399825071 0.1698083925 -2.9965522711
*
