! pbe def2-sv(p) def2/J RI DEFGRID1 loosescf d4 GCP(DFT/SV(P)) printgap
%output
    printlevel normal
end
* xyz 0 1
C 2.0295045575 1.1015018783 -1.949180192
C 3.3688526578 0.673938939 -1.3861070341
O 3.2552335084 -0.4384348073 -0.4886725864
P 2.5262193691 -0.3537378433 0.925915204
S 2.7226132059 1.3556657223 1.8560939238
O 3.2259331473 -1.5176237627 1.7286516525
C 2.9876346905 -2.9385425573 1.5892461536
C 3.1284997651 -3.42126804 0.1621594128
S 0.5347923849 -1.0584719411 0.6195740929
C -0.4037333305 0.243039283 1.4581428433
S -0.9248412619 1.6146683447 0.3881441807
P -2.1496063737 0.5565059665 -0.9888558914
S -1.3531683844 -0.5555109728 -2.3839025702
O -2.9600221604 1.7280629913 -1.6777117662
C -3.4844561 2.9207162055 -1.0502103519
C -4.4964511051 2.6117645194 0.0325828209
O -3.1618216501 -0.2142477546 -0.0210883405
C -3.5294397878 -1.5992727082 -0.1673770183
C -2.855228484 -2.4566276595 0.8849522855
H 1.418331972 1.5425346416 -1.1617101719
H 2.1820498903 1.8470363534 -2.7229048619
H 1.4987195323 0.2520408334 -2.375439832
H 3.8405143737 1.5052288358 -0.8519712252
H 4.0342916416 0.3099276713 -2.1702492722
H 3.7418120288 -3.380916604 2.2417516893
H 1.9883654974 -3.1549255086 1.9756660132
H 2.3563165682 -2.9770600802 -0.4646645231
H 4.1022462817 -3.1475771011 -0.2354682124
H 3.0202124095 -4.5012530681 0.1394245893
H 0.2240160723 0.7014827614 2.2236525763
H -1.2843335744 -0.2255267474 1.8885992512
H -2.6461537696 3.497169802 -0.651085326
H -3.9381729203 3.4609735844 -1.8828775248
H -4.019105696 2.0858217558 0.856266947
H -4.9145701602 3.5430470291 0.4020572653
H -5.2962260261 1.9927367916 -0.365601903
H -4.6150608271 -1.6152308859 -0.0564026955
H -3.256618893 -1.9351580839 -1.1727934809
H -3.0888345636 -2.0893591365 1.8807386406
H -3.2153261418 -3.4759131069 0.7902266064
H -1.7761842019 -2.4511400986 0.7391225076
*
