! pbe def2-sv(p) def2/J RI DEFGRID1 loosescf d4 GCP(DFT/SV(P)) printgap
%output
    printlevel normal
end
* xyz 0 1
C 1.7266187817 -0.810505747 -2.9678750727
C 3.1476134996 -0.6148730578 -2.4801642523
O 3.3081700735 -0.9968496424 -1.1028202513
P 2.68436044 -0.1757179375 0.1084895518
S 2.7969795467 1.7737919226 -0.003731328
O 3.5185916984 -0.7142301209 1.3345511824
C 3.6609228782 -2.1281333836 1.6433521933
C 2.8812096343 -2.4715473668 2.8971031676
S 0.7523599854 -1.0186380471 0.3540648922
C 0.1286692108 0.2883308512 1.4668700797
S -1.650527428 0.1734773046 1.6838791324
P -2.2621140441 0.883514752 -0.2473466294
S -0.8667442799 1.6519799885 -1.3825531678
O -3.3866164787 1.9313368151 0.0835725545
C -4.5085936338 1.6692229568 0.9651921647
C -5.7030876938 1.1490676603 0.1927563408
O -3.0860210864 -0.3073425705 -0.9049877199
C -2.4770473155 -1.4340493051 -1.5637036312
C -2.3385835121 -2.6118114352 -0.6188442231
H 1.3791564362 -1.8120763932 -2.726219901
H 1.0651470738 -0.0793082477 -2.5037201788
H 1.6946731438 -0.666571981 -4.0430274748
H 3.452436811 0.4305559487 -2.5892869202
H 3.8475104302 -1.2637142531 -3.0091502304
H 3.3238777837 -2.7170126461 0.7882290936
H 4.7322191705 -2.2723852363 1.7894814497
H 3.1032065424 -3.495567902 3.1801171452
H 3.1690505578 -1.8070175739 3.7072464627
H 1.8120596329 -2.3785693846 2.7228114699
H 0.3904854589 1.255080917 1.0296378617
H 0.5708734357 0.170804452 2.4539410427
H -4.1922593515 0.9606019946 1.7357309913
H -4.7201894667 2.63856655 1.4200480695
H -5.9677142964 1.8470231953 -0.5968971685
H -5.4758136007 0.1853792304 -0.2535121273
H -6.5427596642 1.0417256667 0.8723326946
H -3.1550361416 -1.6647788623 -2.3875071255
H -1.5067822807 -1.1284992779 -1.9673928092
H -3.2979707726 -2.8382879595 -0.1627331947
H -1.9950412362 -3.4746892455 -1.1795276493
H -1.6154806362 -2.39352059 0.1638795804
*
