! pbe def2-sv(p) def2/J RI DEFGRID1 loosescf d4 GCP(DFT/SV(P)) printgap
%output
    printlevel normal
end
* xyz 0 1
C 3.1178784873 -3.1425771898 1.3020040057
C 2.9428000936 -1.636893342 1.3765016751
O 2.6007094783 -1.1478221125 0.0648252154
C 1.6014579404 -0.3222171642 -0.082267606
O 0.952180776 0.1716559549 0.8279067733
C 1.3507474395 0.0291943984 -1.5316213234
C 0.227704428 1.051786917 -1.616985907
H 0.2381460212 1.5503833565 -2.5902891145
C 0.3487021847 2.1169515819 -0.5339594893
O -0.5884516569 2.5492829025 0.0980869906
O 1.5807777668 2.5734123608 -0.4551256157
C 1.8475799206 3.5981671995 0.5241801401
C 3.2287611394 4.1604812951 0.253586191
S -1.449214844 0.3384427025 -1.5586655742
P -1.5961227293 -0.9567719111 0.1204751365
S -0.4458961975 -2.5385270052 0.1998932037
O -1.6924038836 -0.178394996 1.4897534536
C -2.6543883416 0.8596125998 1.7594395564
O -3.1360853788 -1.3606133004 -0.0766821166
C -3.5529032895 -2.2255912859 -1.1383747217
H 3.4137699803 -3.517626601 2.2758727957
H 2.1797390889 -3.6083278978 1.0084627646
H 3.8793573831 -3.3908731302 0.5694844536
H 3.8734056435 -1.1402605128 1.662839502
H 2.1460860567 -1.3575326547 2.0722541356
H 1.1066038868 -0.8801673107 -2.0839362745
H 2.2721658418 0.443380655 -1.9439421538
H 1.0689486473 4.3628890317 0.4424086518
H 1.7778854027 3.137849158 1.515201529
H 3.9742287721 3.375119322 0.3324789339
H 3.2688206628 4.5856781824 -0.7446831574
H 3.4460618908 4.9344071327 0.9820213906
H -3.6367374456 0.5667530109 1.3946794071
H -2.3255640313 1.7847853239 1.2867262764
H -2.6566998829 0.9641164355 2.841249315
H -2.8699069128 -3.0728913852 -1.2192621723
H -3.5763958785 -1.6732560446 -2.0768063027
H -4.5486054983 -2.5655673828 -0.8650114918
*
