! r2scan-3c def2/J RI DEFGRID2 scfconv6 printgap
%output
    printlevel normal
end
%cpcm
    smd true
    smdsolvent "water"
end
* xyz 0 1
C 0.6248112572 1.6897033031 -0.0696782408
C 1.4192661436 0.388063901 -0.2650201952
H 1.650928115 0.2371391338 -1.3280193782
C 0.5632765873 -0.7984269319 0.1937050909
H 0.432981988 -0.7276982643 1.2849560004
C -0.8130820049 -0.7517823021 -0.4927354579
H -0.6714819008 -0.9199474404 -1.5656180204
C -1.4721228426 0.6227103924 -0.2864422677
H -2.3636164314 0.7001031376 -0.9255406963
O -0.6357623917 1.6622269538 -0.7213987628
O -1.8052144216 0.7260289666 1.0632798571
O -1.6413129268 -1.7873487474 -0.0338282579
O 1.2325952872 -1.9908810971 -0.1381963694
O 2.5913405228 0.4077887436 0.5129822137
H 1.149515105 2.5391454328 -0.5063796366
H 0.4942306663 1.8502298821 1.0076285367
H -2.3423230381 1.5171696054 1.2198420946
H -1.9651893496 -1.550818179 0.8504502136
H 0.6195420781 -2.7301271713 -0.0028526455
H 3.2575166883 0.9684235459 0.0917023386
*
