! pbe def2-sv(p) def2/J RI DEFGRID1 loosescf d4 GCP(DFT/SV(P)) printgap
%output
    printlevel normal
end
* xyz 0 1
C 4.9182298838 1.6080925412 0.0110613768
C 4.3888602831 0.6618198834 -1.0455511722
O 3.6145762389 -0.4190914638 -0.490850466
P 2.3679598913 -0.2496784575 0.477785788
S 2.6875096441 0.1573992098 2.3621317639
O 1.667415228 -1.6578695563 0.3640515366
C 1.4365453233 -2.3595387856 -0.8795053255
C 2.5080732103 -3.4054622038 -1.1027728856
S 1.1539669207 1.1630212934 -0.5683411426
C 0.0919622678 1.5832134326 0.8317734597
S -0.9901574073 0.2272153153 1.3667411478
P -2.2015381887 0.0482737359 -0.3628044281
S -1.5148812178 -0.7658782543 -1.9988474733
O -2.6434040984 1.5812426685 -0.494197388
C -3.0950268945 2.1298170393 -1.7482503587
C -4.4846518983 1.6374478011 -2.0967027408
O -3.452694058 -0.7795062033 0.1462580591
C -4.2338668135 -0.4226775889 1.3125406851
C -3.9150350462 -1.3546053021 2.4642181633
H 4.0938861578 2.1209861764 0.5042811298
H 5.4795216627 1.0599268101 0.7639895314
H 5.5649253608 2.3435056414 -0.4564852689
H 5.2007852557 0.1526955894 -1.5679407693
H 3.7619990018 1.1952693604 -1.765732791
H 0.4502529802 -2.8148130855 -0.7649672864
H 1.3992646969 -1.6400723942 -1.7023613795
H 3.4806175337 -2.93105117 -1.2045349557
H 2.5377682149 -4.0898611134 -0.2593382376
H 2.2784820617 -3.9580082531 -2.0083353093
H -0.5087860003 2.4381027995 0.5339485712
H 0.7160333144 1.8116870461 1.697448166
H -3.0734083268 3.2090899003 -1.5909940794
H -2.3796707721 1.8507015467 -2.5281667356
H -4.4675939222 0.5560555011 -2.2306643021
H -5.1856849456 1.8856632194 -1.3039099819
H -4.8094151094 2.1018142969 -3.0224527615
H -4.0320649302 0.6185266205 1.5754802309
H -5.2722405161 -0.5309485994 0.9943035557
H -4.558283488 -1.1162148223 3.3052897306
H -4.0814313099 -2.3857070027 2.1647402941
H -2.8758751029 -1.2425621139 2.7681531917
*
