! pbe def2-sv(p) def2/J RI DEFGRID1 loosescf d4 GCP(DFT/SV(P)) printgap
%output
    printlevel normal
end
* xyz 0 1
C 0.4602902461 -1.4208298141 2.2740759333
C 1.9644231532 -1.3682144968 2.4459781601
O 2.5564281099 -0.2701895501 1.7315528498
P 2.5601911427 -0.1718043757 0.1440108298
S 2.7967633905 -1.8753054469 -0.8045648125
O 3.6783233853 0.920764757 -0.1089846599
C 5.0714102723 0.5778527752 -0.261102388
C 5.6751388517 0.0521902948 1.0246188151
S 0.8904146851 1.0343358764 -0.3581458532
C 0.191190533 0.0311360355 -1.7007069215
S -1.097470964 -1.1155087089 -1.1497570748
P -2.5209372126 0.3740282942 -0.6673218631
S -2.6585818143 1.8948181033 -1.8877409254
O -2.0789885705 0.7507840094 0.8229709749
C -2.1807251764 2.0849543782 1.3435075767
C -3.6074910169 2.3990549557 1.7460091894
O -3.8894058764 -0.4147998314 -0.5769654516
C -4.0544628658 -1.7666000614 -0.08577049
C -3.7238296428 -1.8907649821 1.3864951634
H 0.0156271691 -0.4573299799 2.5125863221
H 0.2141867172 -1.6774878939 1.2438251892
H 0.04881447 -2.1809831392 2.9307001376
H 2.4200724229 -2.2982700654 2.0914756821
H 2.2466008744 -1.1862984157 3.483961172
H 5.1584312774 -0.1648242271 -1.0607416101
H 5.5357555414 1.5143452387 -0.5729571604
H 5.2343832704 -0.911272688 1.27647455
H 6.7453667316 -0.0736325598 0.8931369389
H 5.4888967705 0.7483384592 1.8381621981
H 0.9744979394 -0.5807151636 -2.1480535245
H -0.2401052352 0.7238965617 -2.4227625384
H -1.5023103184 2.0993031252 2.1975765089
H -1.8267488463 2.7896400818 0.5841871321
H -3.9551658012 1.689616725 2.4919794399
H -3.6570377462 3.4040628476 2.1526630782
H -4.2536056603 2.3373462394 0.8705422783
H -5.1062985782 -1.9784225672 -0.2845135026
H -3.4233925616 -2.4286384155 -0.6847330247
H -3.9221549131 -2.9082218913 1.7084488819
H -2.673852761 -1.6625537079 1.5550277026
H -4.3339058389 -1.2052839009 1.9686489335
*
