! wb97x-v def2-tzvp def2/J RIJCOSX DEFGRID2 scfconv7 GCP(DFT/TZ) printgap
%output
    printlevel normal
end
* xyz 0 1
C -1.9224085723576516 -0.06459907875835962 0.30709501063638694
C -0.7287091918283908 -0.663842367829838 -0.3862225492533509
N 0.568319979332501 0.040529718774679244 -0.05030272416361392
O 0.5407540275564838 1.0402314383865878 0.6543440338329677
O 1.5955310376313876 -0.437789002223837 -0.521794409986483
H -1.8161600408762306 -0.1037525549743295 1.3936585463172468
H -2.0922895991028545 0.96905219286154 -0.0019236823567644144
H -2.7994541220587146 -0.6552422376285938 0.027083005795382458
H -0.7931043501299821 -0.6055797674942492 -1.4769839283064816
H -0.551441181845049 -1.7080077306252597 -0.11514385717334245
*
