! pbe def2-sv(p) def2/J RI DEFGRID1 loosescf d4 GCP(DFT/SV(P)) printgap
%output
    printlevel normal
end
* xyz 0 1
C 4.805815196 -0.8294464537 -1.3817786637
C 4.4520132773 -0.6540527042 0.0798473341
O 3.5096846905 0.4112316005 0.3067776592
P 2.069287618 0.5367563908 -0.3588492338
S 1.9794742621 1.0881633154 -2.2328323119
O 1.4028893901 1.6141529659 0.5780333488
C 1.4117478461 1.533736398 2.0235212058
C 2.4939464457 2.421217291 2.6026003505
S 1.2270154545 -1.3644005791 0.0992085396
C 0.1230118916 -1.5893187803 -1.3281785959
S -1.5854643838 -1.9011278192 -0.8432092841
P -1.9875640082 -0.0104216629 0.0485899289
S -1.4323476403 1.5133896163 -1.0556534669
O -1.3399974281 0.0425803606 1.4832223191
C -1.8279224557 -0.6437565142 2.6687384763
C -1.7014561137 -2.148971696 2.5656426184
O -3.5362609854 -0.1013775541 0.3760728361
C -4.5223556714 -0.0730965385 -0.6770790025
C -5.8693218721 0.2065274666 -0.0424520118
H 3.9318099595 -1.1475783106 -1.9476682588
H 5.1577642095 0.109443275 -1.8024621049
H 5.5833336597 -1.5806637406 -1.4754254068
H 5.3224617577 -0.3515302387 0.6647915457
H 4.0307615378 -1.5759608676 0.4899949877
H 0.4161672389 1.8714711289 2.3190047173
H 1.5493907748 0.4895096605 2.3190293609
H 2.4369108276 2.3890448839 3.6861218651
H 3.4738203356 2.078946323 2.2809200646
H 2.3532091507 3.4442575534 2.2643594261
H 0.4473480606 -2.4717780436 -1.8738984073
H 0.1828336574 -0.693445409 -1.9538958904
H -1.1927791777 -0.2431504826 3.4605387945
H -2.8637529726 -0.3436592557 2.8318773415
H -0.6889904653 -2.4261930133 2.2801418481
H -1.9311712965 -2.5853726176 3.5327238761
H -2.3949622469 -2.5429713308 1.8265318789
H -4.2428425016 0.7060851181 -1.3937743051
H -4.5095179402 -1.0432829978 -1.1804308381
H -5.8523811507 1.168555407 0.4620632783
H -6.6293234636 0.2226686369 -0.8165807551
H -6.1081046063 -0.5683960172 0.6798746869
*
