! pbe def2-sv(p) def2/J RI DEFGRID1 loosescf d4 GCP(DFT/SV(P)) printgap
%output
    printlevel normal
end
* xyz 0 1
C 3.644303745 0.2615979626 -2.2707924184
C 2.1731768797 0.5963948507 -2.1663426215
O 1.7601381324 0.9465604636 -0.8181181829
P 1.9894191622 0.0976856937 0.4922636971
S 0.8745483496 0.7493128131 1.9684506139
O 3.552252674 0.2355002905 0.7370014463
C 4.1613072947 -0.0102691164 2.0151885643
C 4.0750602615 -1.4669469459 2.4230001775
S 1.722009198 -1.9387408827 -0.0593484952
C -0.0785542431 -1.9904476227 0.046124149
S -0.8854941698 -0.9837060968 -1.2388596348
P -2.1528245916 0.2444326252 -0.0456964096
S -2.5759451376 -0.4365961791 1.7368557619
O -3.3607763065 0.5141340893 -1.0463530494
C -4.1105687374 -0.4917345473 -1.7535808751
C -4.726011714 -1.5261051594 -0.8351793141
O -1.5102165387 1.6802186728 0.0337261354
C -1.157487065 2.4641082684 -1.130664774
C -2.1925932293 3.5422599757 -1.3752302235
H 3.8646586671 -0.6529757146 -1.7245773785
H 3.8966030181 0.1177315653 -3.3169263201
H 4.245877435 1.0692399587 -1.8624670434
H 1.5557439444 -0.2417683055 -2.5025902622
H 1.9227133633 1.4908005134 -2.738799558
H 5.1950806128 0.3086452755 1.8750108001
H 3.6724694397 0.6261776327 2.7596694061
H 4.4515822425 -2.1068415973 1.6290901781
H 4.6629797544 -1.6224980045 3.3218896386
H 3.039977203 -1.7341774287 2.6311690227
H -0.4144176008 -1.6301760814 1.0231754154
H -0.3610016785 -3.0287752148 -0.1080185352
H -4.8783578368 0.0832692468 -2.274366589
H -3.4449026556 -0.9657682369 -2.4801802974
H -5.3459199915 -2.2000123101 -1.4176037211
H -3.9473818506 -2.0996239837 -0.3348710069
H -5.3334824936 -1.0437098571 -0.0731501388
H -0.1807046972 2.8898955374 -0.8895304047
H -1.0640504059 1.7974550333 -1.9932031253
H -2.2891331026 4.1689544021 -0.492766439
H -1.8794941085 4.1512979843 -2.2173553684
H -3.1580902194 3.0925632649 -1.5915973808
*
