! pbe def2-sv(p) def2/J RI DEFGRID1 loosescf d4 GCP(DFT/SV(P)) printgap
%output
    printlevel normal
end
* xyz 0 1
C 4.2867180743 0.1204530986 -1.9472785615
C 2.9623870377 -0.6028320793 -2.0705469847
O 2.4857150178 -1.0569306188 -0.7890048226
P 1.9579183652 -0.0630746572 0.3242957618
S 1.2118750772 1.6564916612 -0.2929042749
O 3.2540371953 0.1337309056 1.2241703017
C 3.3635595243 1.1426846337 2.2401509494
C 2.6925001649 0.7061753583 3.5268818009
S 0.8071763252 -1.4028540493 1.4733492809
C -0.2730570629 -2.1704761617 0.2112652961
S -0.5634789784 -1.1717842438 -1.2718706204
P -2.0398697387 0.15168805 -0.5604656097
S -2.4836064903 1.6888016734 -1.6883230847
O -1.4912117048 0.4363609033 0.8959160173
C -2.1601717329 1.390397475 1.7534482173
C -1.2135160532 1.7387530215 2.881909507
O -3.3020063605 -0.7673179578 -0.2058637498
C -4.3532384112 -1.0167260138 -1.150852659
C -3.8930402692 -1.9122936819 -2.2835411571
H 4.1514344723 1.0428365071 -1.3834654045
H 5.0082045811 -0.5057451493 -1.4294273611
H 4.658986635 0.3635267789 -2.9374879802
H 3.049037762 -1.5186371443 -2.6564868552
H 2.2015061173 0.0479644457 -2.515068785
H 4.4383500571 1.2755054664 2.3731320952
H 2.9221825968 2.0703505585 1.858543969
H 2.8423941082 1.4653946946 4.2876405666
H 1.6247403236 0.5712489477 3.362524569
H 3.1123600748 -0.2365929308 3.8663984366
H -1.2207313307 -2.383799446 0.7014262019
H 0.207650009 -3.0799333865 -0.1417594396
H -2.4159333592 2.2720647651 1.1556452982
H -3.0774737889 0.9250653652 2.1221437781
H -0.3079516512 2.183885018 2.4760009752
H -1.6946018825 2.4504197758 3.5444943969
H -0.9532388814 0.8415499242 3.4372962629
H -5.1388060224 -1.4849391238 -0.5562508799
H -4.7006213112 -0.0545510964 -1.540633839
H -3.1213293798 -1.4053442716 -2.8629764162
H -3.4866026511 -2.8423438549 -1.8949758456
H -4.7342354374 -2.1300025344 -2.9335557272
*
