! pbe def2-sv(p) def2/J RI DEFGRID1 loosescf d4 GCP(DFT/SV(P)) printgap
%output
    printlevel normal
end
* xyz 0 1
C 3.6138190254 -3.6077052192 0.3550197147
C 3.9544327361 -2.7148061907 -0.8270764611
O 2.7567005927 -2.2336955788 -1.4728307542
C 2.1818506829 -1.1490311096 -1.007704813
O 2.6002240238 -0.4858880184 -0.0797982443
C 0.9053221886 -0.8251616214 -1.7495592481
C 0.4936716641 0.6283702349 -1.5210397739
H 0.9589089305 1.3063130496 -2.236304067
C 0.7798104132 1.1096914891 -0.1127158292
O 0.1629739564 0.6442956807 0.8351574725
O 1.5729465078 2.1381942153 -0.0703907229
C 1.8711630106 2.7408248516 1.2088822473
C 3.1920023978 2.2159709985 1.7443815435
S -1.3136286178 0.8278277813 -1.6992141421
P -2.0925082065 0.2121890991 0.1851164524
S -2.4335242413 1.3837776118 1.7317546721
O -3.4740252399 -0.0714162313 -0.5952033291
C -4.6938284987 -0.3721678468 0.0839727524
O -1.6808169771 -1.305026718 0.5212038237
C -0.9768058623 -1.7173574434 1.6899833303
H 2.9750691704 -4.4262755774 0.0351643853
H 4.5293701447 -4.0114472005 0.7742633506
H 3.0989000556 -3.0353214822 1.1238228557
H 4.4759330919 -3.2691735308 -1.6069373241
H 4.5474256006 -1.8540059241 -0.5062605423
H 0.1353161233 -1.4985413703 -1.3600079617
H 1.0187573572 -1.0370066215 -2.8113621308
H 1.9196051797 3.8104751009 1.0011127473
H 1.0480014647 2.5245957541 1.8960986909
H 3.3911046965 2.6669373845 2.7106473263
H 3.1424284019 1.1354958158 1.8534122391
H 3.9962277734 2.4593250079 1.0564108364
H -4.7075197187 -1.4226825156 0.3728153604
H -5.4893480393 -0.1595083609 -0.6259553651
H -4.7971646119 0.2575629968 0.9708570034
H -1.3393841752 -2.7166266438 1.9196983362
H -1.1815521382 -1.0319532735 2.5140405184
H 0.0950610103 -1.7266351504 1.494772916
*
