! wb97x-v def2-tzvp def2/J RIJCOSX DEFGRID2 scfconv7 GCP(DFT/TZ) printgap
%output
    printlevel normal
end
* xyz 0 1
C -0.6700591370250851 1.2656251084933492 0.0002967652945445375
C 0.6702060938405774 1.2655710225752084 0.00018331384794506865
C 1.4251661410686318 -7.296433456281655e-05 -2.2945206311044168e-05
O 2.6584766361003047 -0.00012455946681319929 -0.00020068074555942475
C 0.6701037507165636 -1.2656554609058164 0.0002897719043320811
C -0.6701633460114864 -1.2655993785495996 0.0004006905760465965
C -1.4251234852727181 4.4442752882856426e-05 -0.0007691411006279365
O -2.658435562383514 9.230048251978431e-05 1.3651748003298544e-05
H -1.2527792481568154 2.181626881965539 0.0004688079747510325
H 1.2529960795638855 2.1815274512775313 -8.251139155004483e-05
H 1.252820181145119 -2.181659271476196 0.00010839966266030829
H -1.2529566605881586 -2.181555555502739 0.0006515431253360617
*
