! pbe def2-sv(p) def2/J RI DEFGRID1 loosescf d4 GCP(DFT/SV(P)) printgap
%output
    printlevel normal
end
* xyz 0 1
C 2.8454469687 0.3571030307 -3.1121842123
C 2.7213837099 0.9212452154 -1.7130071089
O 2.3919587907 -0.1682472872 -0.8285322281
P 2.0082956423 0.1020289962 0.7016942059
S 0.8320492908 1.6285146144 1.0306321729
O 3.3691182491 0.3334661212 1.4822002089
C 4.4770865121 -0.6013958028 1.4372858078
C 4.5141298634 -1.4438597058 2.6960932726
S 1.4029782872 -1.8375529283 1.2194905347
C -0.0871649345 -1.9905837161 0.2000434353
S -1.5372107033 -1.1329730311 0.8891811685
P -1.9616930508 0.2547035213 -0.6785444864
S -0.7400273768 0.2286333717 -2.2004783571
O -2.1530975648 1.6743894409 -0.0441957937
C -2.9941108714 1.9212984332 1.1133593136
C -2.5667398246 3.2427440383 1.7143724634
O -3.4713774031 -0.1094852868 -1.0492126109
C -3.803987388 -1.3431088612 -1.7155400743
C -5.2510088485 -1.2573949359 -2.1564933487
H 3.5855204424 -0.4373115897 -3.1301023387
H 1.8849183104 -0.0402740654 -3.431123993
H 3.1454978602 1.1502786385 -3.788713293
H 1.9242755153 1.6699927098 -1.654897916
H 3.656867924 1.3738645168 -1.3708821551
H 4.3847672959 -1.2240221856 0.543858346
H 5.363567745 0.0306746724 1.3591788837
H 4.5507479366 -0.8008085829 3.5709691424
H 3.6293092326 -2.0736337207 2.7595141016
H 5.3984880322 -2.072740064 2.6747572484
H -0.3134928236 -3.0533712069 0.1799400241
H 0.1099972198 -1.6013707864 -0.8027069184
H -4.0304771853 1.9425238164 0.77088524
H -2.8590669897 1.0998080085 1.8231850885
H -2.7019332853 4.0428426508 0.992555543
H -3.1627706271 3.4438871125 2.598352892
H -1.5147258156 3.1970479767 1.9874881251
H -3.1300051005 -1.4691609295 -2.5693381778
H -3.6494304347 -2.1646505117 -1.0098996719
H -5.3835640866 -0.4221223249 -2.8383382576
H -5.5245293405 -2.1787294985 -2.6598640093
H -5.8943394481 -1.1130105441 -1.293492243
*
