! pbe def2-sv(p) def2/J RI DEFGRID1 loosescf d4 GCP(DFT/SV(P)) printgap
%output
    printlevel normal
end
* xyz 0 1
C 4.4184315302 2.4477078043 -1.185941012
C 3.0765502133 1.8916239278 -0.7555163597
O 3.3210929605 0.7027150121 0.0227743321
P 2.1543647534 0.021857591 0.8571562073
S 1.1784522241 1.2236625269 2.0470121034
O 2.8726082214 -1.1359929452 1.6430471808
C 3.8009276914 -2.0712658272 1.0336317673
C 5.2283975424 -1.5956878158 1.2056550471
S 1.0575138637 -0.9625681312 -0.7025976395
C -0.0806993883 -1.9058973971 0.3442370915
S -1.4287053813 -0.9174256342 1.0479556988
P -2.1919814809 -0.1866328248 -0.8077132619
S -2.0994635376 -1.4389710515 -2.3033725906
O -1.4501656516 1.169121478 -1.1068847226
C -1.464858823 2.3109845029 -0.2140066643
C -2.5504040661 3.2887120021 -0.6095014304
O -3.6501108338 0.2886486686 -0.3980744712
C -4.6901267472 -0.6712651324 -0.1143604831
C -6.018073507 0.0569928713 -0.1534249449
H 4.9512292696 1.7136431943 -1.7833851942
H 4.2590260126 3.343220382 -1.7773776328
H 5.0155175678 2.6962038599 -0.3131759495
H 2.4604238786 1.6179709176 -1.6172372185
H 2.5262556652 2.6044577937 -0.1323107776
H 3.6285160727 -3.0090106739 1.5650082384
H 3.5452373373 -2.1879632486 -0.0228648367
H 5.3812814696 -0.6612361326 0.6729318274
H 5.4435832893 -1.4383777463 2.2589950371
H 5.9026655077 -2.3489985683 0.8102266451
H 0.4551813783 -2.3399100347 1.1856640464
H -0.5046093691 -2.6748957625 -0.3009240882
H -1.5915944437 1.9623363389 0.8150661465
H -0.4712390794 2.7520478932 -0.3181263939
H -2.4853256533 4.1629820126 0.0305225826
H -2.41981771 3.5886348034 -1.6456133403
H -3.5291074668 2.8308443288 -0.4958728675
H -4.6439361944 -1.4649784707 -0.8672213844
H -4.4968651102 -1.1007659348 0.872366217
H -6.8149273058 -0.646636984 0.0635086516
H -6.0292849406 0.8515719743 0.5871021182
H -6.1786381666 0.4877320269 -1.1377643319
*
