! r2scan-3c def2/J RI DEFGRID2 scfconv6 printgap
%output
    printlevel normal
end
%cpcm
    smd true
    smdsolvent "water"
end
* xyz 0 1
C 1.0384443463 -2.9543625883 0.8433407897
C 2.0801153165 -1.9909896533 1.3763383596
O 1.7662191236 -0.6329240479 1.0075899795
P 2.454278314 0.1279898925 -0.2185426946
S 3.1473590833 -1.0226710688 -1.6364772118
O 3.6370112883 0.9983661928 0.3839358296
C 3.5015867157 2.2133681327 1.1566426195
C 2.7288928792 2.0043587802 2.4421529943
S 0.9684379957 1.5515303475 -0.7020408839
C 0.1957583357 0.6288276462 -2.0532721553
S -0.6080759203 -0.9010774959 -1.5096055934
P -1.9752973957 -0.0066273429 -0.1674593415
S -2.7298802601 1.7200117819 -0.7224276468
O -1.1692645367 -0.0367080694 1.1911733736
C -1.4265511272 0.9017994154 2.2553260408
C -2.7733421262 0.6529176624 2.9002099544
O -3.0350889171 -1.1628363112 0.0778513285
C -4.0648812369 -1.4630346562 -0.8852966512
C -5.1422541357 -2.2630187089 -0.1811690774
H 1.0908970457 -3.0031843273 -0.2423214329
H 1.2230860811 -3.9423644241 1.252629554
H 0.0430187414 -2.6231530864 1.1298892512
H 3.0744324267 -2.2468195344 0.9980457855
H 2.0913796317 -1.9839965217 2.4677890079
H 4.5356687035 2.5041946425 1.3485507669
H 3.0155887788 2.9650707453 0.5290851944
H 1.7060815764 1.7084133981 2.216971285
H 3.1984596758 1.2305708478 3.0441297043
H 2.7129313559 2.934562646 3.0014050379
H 0.9538334386 0.3367682138 -2.7794150787
H -0.5444066913 1.297623685 -2.4917148142
H -0.6048873811 0.7371280256 2.9539768224
H -1.3720041291 1.9159837753 1.8459981252
H -2.9005006494 1.3250246785 3.7430068713
H -3.5656424688 0.8387779101 2.1757603916
H -2.8431882779 -0.3766120192 3.2410138194
H -4.4576791299 -0.5204035668 -1.2813685117
H -3.6131210056 -2.0329465207 -1.7017955155
H -4.7140250185 -3.1672773638 0.2411823149
H -5.5844369469 -1.6753204527 0.6182159173
H -5.9124708611 -2.5298111168 -0.8972762801
*
