! wb97x-v def2-tzvp def2/J RIJCOSX DEFGRID2 scfconv7 GCP(DFT/TZ) printgap
%output
    printlevel normal
end
* xyz 0 1
C -2.403750573677186 0.03637420021605346 -3.9286721758166637e-05
C -0.905092457399568 0.011297203357776418 7.830642399789499e-05
C -0.18146340722586504 1.2092471381918544 2.33694488397364e-05
C 1.2042005378572163 1.1706677062185693 -0.00019226465095939542
C 1.8395288906101468 -0.06875557345451408 -0.00028619478049972554
C 1.048352115706579 -1.2070339033166173 -0.00010760422597784415
N -0.29504505689267013 -1.1865273841132216 2.568360931044509e-05
H -2.7802903908486396 0.5653121183437436 -0.8822461433533777
H -2.8119993418314664 -0.9753933953130364 0.0035273173454725324
H -2.780553603508479 0.5718679734542077 0.8780519756737147
H -0.7118240662557263 2.156657479351984 0.00011264480356825676
H 1.7813397483128635 2.09012344652065 -0.00030851383320360974
H 2.9208679713165018 -0.15136417279044667 -0.0004188320417109368
H 1.510376615626149 -2.1922043137617666 -0.00023511034643306305
*
