! pbe def2-sv(p) def2/J RI DEFGRID1 loosescf d4 GCP(DFT/SV(P)) printgap
%output
    printlevel normal
end
* xyz 0 1
C 1.374575378 -2.1413237389 1.9546073892
C 2.8608077233 -1.9494152976 1.7346682978
O 3.1763181004 -0.6208255822 1.2808745522
P 2.7923666642 -0.0909384225 -0.1714992047
S 2.9809181774 -1.3828627706 -1.6254628759
O 3.7733995113 1.1322185875 -0.3249542273
C 3.8691264446 2.1818261157 0.6725517337
C 4.5810963355 3.3569149926 0.0365376603
S 0.8687035813 0.842380207 0.0407800738
C -0.0302640937 -0.0150119374 -1.275893503
S -1.2399572931 -1.2019863105 -0.6482152736
P -2.7326394723 0.2472976896 -0.1729009636
S -3.0024168307 1.6541460695 -1.5037314784
O -2.3108539593 0.840643965 1.2228719948
C -2.1058698183 0.0228062896 2.4050925917
C -1.156035008 0.76644885 3.3207364189
O -4.006691055 -0.6250571415 0.2061623463
C -4.9683400961 -1.0732261431 -0.7664106052
C -4.3731123695 -2.0509174263 -1.758602725
H 0.9873705883 -1.3627301414 2.6065963883
H 0.8471758606 -2.1084039489 1.0016172181
H 1.2029680764 -3.1109098185 2.4107705611
H 3.2383831883 -2.665384152 0.998231824
H 3.420823597 -2.0441359832 2.6661552522
H 2.8575094738 2.450141099 0.9914859551
H 4.4243610483 1.7846467746 1.5241141437
H 4.6887837992 4.1486776078 0.7707934425
H 5.5634727507 3.0514630057 -0.3119670357
H 4.0102474257 3.7274669852 -0.8103079916
H 0.6834542779 -0.5718288885 -1.8876034048
H -0.5578820887 0.737210913 -1.8638187455
H -3.0807216531 -0.1306570532 2.871064316
H -1.6974666319 -0.9439700677 2.0957526142
H -1.5793362056 1.7290637512 3.5919840365
H -0.992146202 0.1790932641 4.2185734831
H -0.208745019 0.937996189 2.8154090396
H -5.7486487563 -1.5376009836 -0.1617148987
H -5.3694628342 -0.1962958604 -1.283552931
H -3.651340611 -1.5430447082 -2.3967629186
H -3.8711408091 -2.8624797523 -1.2376312069
H -5.1647849019 -2.4562395943 -2.3805308222
*
