! pbe def2-sv(p) def2/J RI DEFGRID1 loosescf d4 GCP(DFT/SV(P)) printgap
%output
    printlevel normal
end
* xyz 0 1
C 2.224454454 -1.7907078407 2.9215625039
C 0.991876625 -1.6913552857 2.0487637065
O 0.969011248 -0.4516719464 1.3106853087
P 2.0035068469 -0.1499447894 0.1520425987
S 2.7178389397 -1.7093003024 -0.8040622339
O 3.0363757108 0.7796251595 0.9204770443
C 4.1650977412 1.3991892878 0.2721304355
C 5.3943734974 0.5143589039 0.3506828477
S 0.9363131173 1.2469261068 -1.0327099443
C 0.1584346532 0.0376677182 -2.1374042334
S -0.9108288462 -1.1278236106 -1.265555883
P -2.3624321172 0.2897817308 -0.5952726292
S -2.6689075827 1.8267800937 -1.7619844538
O -1.9544805692 0.6569549018 0.9012118179
C -1.4387343135 1.9263060836 1.3317304595
C -2.3870936727 2.5266075112 2.3505881605
O -3.6600454566 -0.5868414485 -0.4237672405
C -3.7220432694 -1.9669625114 0.0075729767
C -3.1646705994 -2.1600401599 1.4009572638
H 3.1144831719 -1.8255318148 2.2940170088
H 2.2916188775 -0.9272796303 3.5781086689
H 2.1747955486 -2.6975131725 3.5160024664
H 0.076334643 -1.6617355512 2.6414452532
H 0.9497517123 -2.5214180272 1.3359924168
H 3.9063331354 1.6233344029 -0.7668352328
H 4.312267584 2.333011168 0.8179645244
H 5.6226179043 0.2826572498 1.3872773728
H 5.2268318217 -0.4152996134 -0.1886519502
H 6.2368999184 1.0336562675 -0.0944830228
H 0.9268517778 -0.5583869258 -2.6289403531
H -0.4281746245 0.6104720251 -2.8552156133
H -0.4534061037 1.7309897187 1.7625175161
H -1.3309426572 2.586254416 0.4640158881
H -3.3546899563 2.7119542256 1.8898105281
H -2.517856203 1.8475174847 3.1880798464
H -1.9768326326 3.4655849677 2.7077522507
H -4.7879055619 -2.1952017969 -0.039582108
H -3.1789017892 -2.5780005878 -0.7184810235
H -3.6861140151 -1.519964687 2.1074841581
H -3.2872552396 -3.1980963921 1.6936380738
H -2.105801775 -1.9095635107 1.4116573222
*
