! r2scan-3c def2/J RI DEFGRID2 scfconv6 printgap
%output
    printlevel normal
end
* xyz 0 1
C -0.0038894402 -2.2790045932 2.3864876166
C 1.3455870772 -2.0580500295 1.7352196631
O 1.517268239 -0.6464641306 1.481867445
P 2.3637108648 -0.0501743319 0.2839549647
S 3.2264755859 -1.4020143501 -0.8506223685
O 3.2899865362 0.9103936501 1.1380714599
C 3.9874590371 2.0653970679 0.6351474739
C 4.8732446561 1.7461432887 -0.5516000718
S 1.0895647016 1.3187846218 -0.7277789422
C 0.4400451862 0.13685255 -1.9339522845
S -0.5350855999 -1.1808944575 -1.1614574046
P -2.0199874827 0.0855269083 -0.3396873456
S -2.6071403259 1.5681112799 -1.4856075843
O -1.3976005029 0.4638262304 1.0619363145
C -1.6853800883 1.7112928177 1.7226712658
C -3.094064841 1.7237300445 2.2766629748
O -3.1549183367 -0.935160206 0.0928619441
C -4.0699316762 -1.5032783008 -0.8663573301
C -5.2630387921 -2.046603864 -0.1064921493
H -0.1111893352 -3.3327636537 2.6221879692
H -0.0753136894 -1.6940221362 3.2986707052
H -0.8057428592 -1.9800768717 1.7157702308
H 1.4309184469 -2.6063641681 0.79098127
H 2.1573257429 -2.3671379312 2.3982631194
H 3.2466643878 2.8261504475 0.3727681444
H 4.574310742 2.4012267092 1.4920223246
H 4.2667678397 1.4409256826 -1.4031791234
H 5.4441260261 2.6284412641 -0.8225241643
H 5.5561068097 0.9357990271 -0.3073635971
H 1.265717093 -0.351356711 -2.4517127236
H -0.1874276648 0.7040110023 -2.6208194119
H -0.932252536 1.7717797217 2.5096339693
H -1.5390958606 2.5281459481 1.0080042519
H -3.8090834261 1.6683000865 1.4563669022
H -3.2472886281 0.8728037689 2.9347962899
H -3.2584826687 2.644446823 2.8274273512
H -4.364942078 -0.7201871331 -1.5729880596
H -3.5469485954 -2.2953344505 -1.4091991999
H -5.9507940647 -2.5076575682 -0.807691332
H -4.9347946117 -2.7873754179 0.6166127421
H -5.7716159733 -1.2428863416 0.4181888547
*
