! pbe def2-sv(p) def2/J RI DEFGRID1 loosescf d4 GCP(DFT/SV(P)) printgap
%output
    printlevel normal
end
* xyz 0 1
C 2.9925272662 0.2138885219 3.319807724
C 1.657244183 -0.2453085389 2.773797071
O 1.4004203088 0.2969528375 1.4613127683
P 2.2437451112 -0.1395650377 0.1938525639
S 2.9010869603 -1.9904366995 0.1932650897
O 3.3635701067 0.9859272999 0.1459964868
C 4.558126365 0.8535279453 -0.6430460117
C 4.2684973892 0.9030509268 -2.1293763213
S 0.8947898658 0.3934354255 -1.3457845286
C -0.0585005722 -1.1475156792 -1.2977524352
S -1.1249879495 -1.2768034233 0.156891486
P -2.4998154985 0.241963313 -0.4494897841
S -2.909290804 0.3047120537 -2.3582759754
O -1.8917864624 1.6003433907 0.0703288943
C -1.6406228904 1.8688526686 1.4728015581
C -0.6221296213 2.986417625 1.5541131887
O -3.7352428831 0.0432983127 0.5325656685
C -4.8344671972 -0.8379231911 0.2336499712
C -4.4138626595 -2.2923177214 0.1894403652
H 3.1011615003 -0.1317527543 4.3430229927
H 3.80040783 -0.2021471161 2.7189662759
H 3.0575624259 1.298358107 3.2934549527
H 0.8259994237 0.1207510214 3.3777437162
H 1.617217211 -1.3373692554 2.7104066957
H 5.1773314974 1.6932633371 -0.3248313438
H 5.0444781282 -0.0910709243 -0.3787980932
H 3.6983801946 0.024099639 -2.4282187395
H 3.6909670707 1.7914123333 -2.3732309857
H 5.204306341 0.9186205553 -2.6788400906
H 0.624377182 -1.9969409571 -1.2672364723
H -0.6748234755 -1.1616981914 -2.1969468865
H -2.590592361 2.1516184669 1.9302959724
H -1.2718355694 0.9517972066 1.9420147705
H -0.9822359909 3.8547564558 1.0098959049
H -0.464639668 3.251233051 2.5947249682
H 0.3209293617 2.666906208 1.1172663232
H -5.5434687518 -0.6472567862 1.0405540956
H -5.2673786014 -0.5336832333 -0.7239915872
H -5.2961946429 -2.9164412853 0.0908465982
H -3.7628953465 -2.4663723277 -0.6660007602
H -3.8798331232 -2.5615710747 1.0973388219
*
