! pbe def2-sv(p) def2/J RI DEFGRID1 loosescf d4 GCP(DFT/SV(P)) printgap
%output
    printlevel normal
end
* xyz 0 1
C 3.2240552566 0.1991957867 3.3333044306
C 1.8863882092 -0.2513735026 2.7862808079
O 1.6321959183 0.3428132558 1.4969063595
P 2.3602398943 -0.1563162954 0.1806831785
S 2.9228526316 -2.0384587244 0.2508575263
O 3.4877573106 0.9505860101 0.0273737644
C 4.1636227791 1.2969322429 -1.1944918424
C 4.7460390575 0.0945905162 -1.9084067228
S 0.9539421078 0.3420907927 -1.3228770429
C -0.0587651032 -1.1462194379 -1.1182695283
S -1.1428197235 -1.0632023905 0.3222377635
P -2.5185191811 0.3411054519 -0.5188605746
S -2.8897948255 0.0496860514 -2.4195491586
O -1.9267504825 1.7823436559 -0.2657669259
C -2.0561343286 2.5600636471 0.9487087696
C -1.3640539301 1.9108972913 2.1280901442
O -3.7737955116 0.3066207229 0.4525636951
C -4.8636182156 -0.6173262124 0.2731707588
C -4.4454735041 -2.0549279306 0.5017813511
H 3.3694301935 -0.2171701826 4.324964672
H 4.0215393791 -0.1512155677 2.678676195
H 3.2648603184 1.2838148746 3.383362768
H 1.0545466101 0.0837391556 3.4066881371
H 1.8549383049 -1.3406691843 2.6818818694
H 3.4528123032 1.8221285075 -1.8390089099
H 4.9458197649 1.9850472923 -0.8685133857
H 5.3173034576 0.4280118121 -2.7688524562
H 5.39561182 -0.4665321465 -1.2406319293
H 3.9475703554 -0.5642706353 -2.247948254
H 0.5941561288 -2.0098547255 -0.9832075713
H -0.6660674265 -1.2409982322 -2.0193971291
H -1.5919061997 3.5112201371 0.6831099659
H -3.1193475997 2.7058045868 1.1490912345
H -1.4197383095 2.5780427204 2.982739687
H -1.849505195 0.9689905144 2.3775659623
H -0.3204323701 1.7183601814 1.8908655291
H -5.6015143664 -0.2904595507 1.0072581773
H -5.2603735219 -0.4892726662 -0.738496383
H -3.9452459541 -2.1586082502 1.461315188
H -5.3253986805 -2.6898790757 0.4831270999
H -3.7645116271 -2.375062901 -0.2852919119
*
