! pbe def2-sv(p) def2/J RI DEFGRID1 loosescf d4 GCP(DFT/SV(P)) printgap
%output
    printlevel normal
end
* xyz 0 1
C 3.3822132091 -1.115617186 -2.976732149
C 2.1531857184 -0.6078037372 -2.2532161661
O 2.5327219773 0.2546977272 -1.1535224067
P 2.5653404116 -0.2311858892 0.346319257
S 3.2814006087 1.1470960865 1.5318534595
O 3.3862721187 -1.5892553956 0.261067984
C 3.9851319294 -2.206381107 1.4172071517
C 2.9527185483 -2.682577633 2.4178587128
S 0.5790442646 -0.8531658741 0.76321194
C -0.0106978383 0.8136336463 1.2248916361
S -1.7938426599 0.8555403706 1.4089192937
P -2.3423883222 0.8987047001 -0.6636076763
S -0.8659830527 1.3194280858 -1.8821435734
O -3.4976592148 1.9593809502 -0.7733247271
C -4.8736568911 1.7453734949 -0.3666524876
C -5.0013093753 1.4479007973 1.1114080874
O -3.1162433384 -0.4536281343 -0.9779966126
C -2.468158914 -1.7242015113 -1.1751440652
C -2.5040512327 -2.5537795779 0.093300966
H 3.9866791179 -0.2774955131 -3.312358079
H 3.9784159102 -1.73706596 -2.3137170409
H 3.0701771299 -1.7001305736 -3.8363659002
H 1.5521502336 -1.434241905 -1.8631586212
H 1.5327509061 0.0213862833 -2.8955543479
H 4.5546611627 -3.0376427995 0.9992197324
H 4.6642164177 -1.4829633621 1.8782403058
H 2.207706064 -3.3047438572 1.928311716
H 3.4478135036 -3.2553527295 3.1954194541
H 2.4543185001 -1.8288450047 2.874418445
H 0.292147412 1.5130292849 0.442261291
H 0.4221738635 1.0893447991 2.1846462342
H -5.3581410179 2.6858194862 -0.6331364863
H -5.2816610243 0.9314131021 -0.9681692496
H -6.0535131528 1.3740939804 1.3681802645
H -4.5105201264 0.5064773398 1.3518794096
H -4.5432664123 2.2381243197 1.7006315291
H -3.0380283174 -2.2002963788 -1.9754163243
H -1.4415255475 -1.5535456255 -1.513670381
H -2.0947905405 -3.5362974935 -0.1165962008
H -1.9074038575 -2.0877002662 0.8743729659
H -3.5278391462 -2.6577918323 0.44079306
*
