! pbe def2-sv(p) def2/J RI DEFGRID1 loosescf d4 GCP(DFT/SV(P)) printgap
%output
    printlevel normal
end
* xyz 0 1
C 4.9854098728 -2.3720978728 -1.9976511912
C 4.9342609451 -1.9451165564 -0.5395620374
O 3.6234721147 -2.172776369 0.0164840212
C 2.7116017956 -1.2338598233 -0.1070793946
O 2.8892138103 -0.1616097214 -0.6488213194
C 1.4036815624 -1.6323828205 0.5425201248
C 0.2883759246 -0.7720990052 -0.0278027443
H 0.0609177329 -1.0217535864 -1.068528477
C 0.6034011589 0.7106339511 0.0416156139
O 0.3544947455 1.4747870441 -0.8657029118
O 1.0383126177 1.0644855909 1.2332115664
C 1.3589439959 2.45092594 1.4580665495
C 2.8386417153 2.6989786991 1.2170394483
S -1.2404411735 -0.9910679981 0.9464657467
P -2.469321747 0.3155160078 -0.1939425639
S -2.3423455829 0.1431073966 -2.1357018743
O -3.9130440561 0.004603505 0.4112435292
C -4.5854289419 -1.2277842601 0.119346773
O -2.2315805884 1.7802351182 0.3579121829
C -2.473403392 2.1197303725 1.7411577002
H 4.3149318651 -1.755192152 -2.5925191196
H 5.9967290318 -2.2521379592 -2.371736727
H 4.6879684462 -3.4124781187 -2.0944289135
H 5.1779118657 -0.8839281443 -0.4385460329
H 5.598676678 -2.5511483436 0.0762061457
H 1.4940421354 -1.4553787581 1.6171626823
H 1.2114451684 -2.6920828253 0.3819444912
H 0.7470164814 3.0593171309 0.7854468801
H 1.0871698176 2.6328687272 2.4986156441
H 3.0545191314 3.7538032252 1.3497629243
H 3.4360292105 2.1167219433 1.9128570918
H 3.0986421649 2.4048160799 0.201923935
H -4.5137785215 -1.4492695214 -0.9464642582
H -5.6215144045 -1.0705255252 0.4076805053
H -4.1399182102 -2.0345274237 0.6999978836
H -2.09183414 3.1310398328 1.8558865684
H -1.9435728517 1.4260815819 2.3951126575
H -3.5415361656 2.0821310406 1.9437504498
*
