! pbe def2-sv(p) def2/J RI DEFGRID1 loosescf d4 GCP(DFT/SV(P)) printgap
%output
    printlevel normal
end
* xyz 0 1
C 3.5085843013 -0.5333553357 -3.0054176804
C 4.0792250681 0.2677205431 -1.852776737
O 3.5976878798 -0.2075918058 -0.5879551551
P 2.0808294592 -0.0277473387 -0.1330383121
S 1.3705911963 1.7275053454 -0.6498552453
O 2.1600975857 -0.363188524 1.4108734411
C 2.3804276378 0.65400762 2.4093378924
C 3.7647780735 1.2557206855 2.3060284895
S 1.2321127013 -1.8423531216 -0.8306403954
C 0.0238456404 -2.317101094 0.4455647602
S -1.6937877944 -2.1992192609 -0.1137007038
P -1.9742310509 -0.123632822 0.1517923187
S -1.0727226842 0.5805855578 1.7521020214
O -3.5496275766 0.0522154496 0.1522183845
C -4.3446696086 -0.2465634711 1.3183338558
C -5.6523062484 0.5096731727 1.1996207902
O -1.5685533177 0.4420749911 -1.264639056
C -2.1775909931 1.5877231788 -1.9056769643
C -2.1237936651 2.8294505508 -1.0424918904
H 3.9457259411 -0.1914759379 -3.9379542539
H 3.7165655896 -1.5916577562 -2.8709729821
H 2.4274618315 -0.3953027823 -3.0478850272
H 3.8122414232 1.3257483511 -1.9506844456
H 5.1623764691 0.1615759349 -1.7818323208
H 1.6068861985 1.4213948819 2.2995735512
H 2.2322533618 0.1257553607 3.3522670817
H 3.9222898586 1.9334417731 3.1390897971
H 4.5165805275 0.4710920671 2.3259188727
H 3.8583784012 1.8120864322 1.3741687352
H 0.1598757308 -1.6893575286 1.3269628235
H 0.2016887862 -3.3650349994 0.6706854493
H -4.5075210621 -1.3266229425 1.3456747287
H -3.784137331 0.0553617617 2.2096454979
H -6.2773488173 0.2719520016 2.0539859873
H -5.4686635474 1.5804003467 1.1787708399
H -6.1657159395 0.2217178054 0.2868895568
H -1.5860834814 1.7096391187 -2.8142480741
H -3.2071723661 1.3229748643 -2.1543458754
H -2.5622766577 3.6634416792 -1.5809526338
H -2.6772860822 2.6680886228 -0.117864162
H -1.0916212388 3.0667217047 -0.7913078389
*
