  14
        -24.48954022
 C         -0.7253731347       -1.8173169324        0.0000519921
 C          0.5997696771       -1.4264122658       -0.0000636902
 C          0.9030898757       -0.0631022753       -0.0000495786
 C         -0.1087245263        0.8929496790       -0.0000324612
 C         -1.4386791103        0.4849219477        0.0000531320
 C         -1.7403107147       -0.8756909458        0.0001283793
 O         -2.3923868713        1.4430297058       -0.0000285868
 C          2.2511684485        0.3536871629       -0.0002054187
 N          3.3510894558        0.6850231634        0.0001867401
 H         -0.9731191194       -2.8670043760       -0.0001319735
 H          1.3962714487       -2.1534250074       -0.0002172474
 H          0.1224053839        1.9464638446       -0.0000694559
 H         -2.7708193418       -1.1976839321       -0.0003348648
 H         -3.2804728169        1.0525556297        0.0000141766
