! pbe def2-sv(p) def2/J RI DEFGRID1 loosescf d4 GCP(DFT/SV(P)) printgap
%output
    printlevel normal
end
* xyz 0 1
C 3.1738675084 2.2456741343 -1.9355728019
C 3.8708103355 1.9661310355 -0.6189835653
O 3.6713050036 0.6096951199 -0.1913379877
P 2.2939979464 0.1061148154 0.4270660768
S 1.5051308755 1.3944086031 1.6798176638
O 2.7226921585 -1.2885917623 1.0350416372
C 2.8452071662 -1.5427056766 2.4536563073
C 1.7618282445 -2.5024162234 2.9041222538
S 1.2103729902 -0.5396285261 -1.2807285729
C 0.1426972206 -1.773449911 -0.485803411
S -1.0001186673 -1.0714127684 0.7247463226
P -2.2600561637 -0.0781631476 -0.6826328545
S -2.4230330318 -0.9539768348 -2.4236482013
O -1.7090810181 1.3849156186 -0.8784492602
C -1.6505273529 2.3740979722 0.1811775694
C -0.840879867 3.545446585 -0.3310326848
O -3.5804349102 0.1974593919 0.1575468814
C -4.3040101195 -0.7841216066 0.9248930417
C -4.6657989404 -2.0127816048 0.1175735827
H 3.3916458157 3.260317682 -2.2532614471
H 3.5107245369 1.5471551964 -2.6971032437
H 2.0953875459 2.1330826262 -1.8211119934
H 3.5038854295 2.6357309025 0.1668577258
H 4.953544934 2.0616425805 -0.7101451972
H 3.8408485569 -1.9681799915 2.5870411427
H 2.7738870262 -0.5939585972 2.9945614668
H 1.8885694671 -2.7065071085 3.9622906355
H 0.778437489 -2.0624515009 2.7435690518
H 1.828409597 -3.4354213568 2.3512366031
H 0.7527608756 -2.5085854583 0.032138543
H -0.4315106833 -2.225823316 -1.296360532
H -2.6731180728 2.6658966996 0.4254198609
H -1.1797257489 1.9254085104 1.0612115462
H -1.2689273841 3.920410197 -1.2561073772
H -0.8413569449 4.3297051618 0.4187338676
H 0.1852072287 3.2376631121 -0.5148822609
H -3.6936677807 -1.054337575 1.7911479562
H -5.194500996 -0.2448959633 1.252746634
H -5.2815421777 -2.6714484305 0.7214412338
H -5.2113290841 -1.7302431624 -0.7796986267
H -3.7644860886 -2.5448354954 -0.1833553887
*
