! pbe def2-sv(p) def2/J RI DEFGRID1 loosescf d4 GCP(DFT/SV(P)) printgap
%output
    printlevel normal
end
* xyz 0 1
C 5.6894157201 -0.3453741213 -0.7243548084
C 4.5682080802 -1.1297175977 -1.3724651442
O 3.407019239 -1.213179624 -0.5193530527
P 2.5089900594 0.0488027521 -0.1851341809
S 2.2785126805 1.3165667304 -1.670438737
O 3.2003675412 0.6373952145 1.1174588294
C 2.9428125246 1.9690718462 1.5954776298
C 1.5294514732 2.1183125855 2.1191245797
S 0.8146546319 -0.9798869038 0.5275990643
C 0.0820680796 -1.2658340175 -1.122746052
S -1.6542102935 -1.7283572373 -1.0236185776
P -2.3611376127 0.0157662506 -0.0586893516
S -1.4887982388 1.7137387188 -0.4756107078
O -2.2465481789 -0.4805306018 1.4564505083
C -2.1227252512 0.4359445753 2.5592064052
C -3.4303094138 1.150031089 2.8369292887
O -3.9069770479 0.0758771711 -0.4033767376
C -4.836507815 -0.9903024406 -0.0842050917
C -5.1100153438 -1.850504677 -1.3014363521
H 5.9075618564 -0.7475262699 0.261395841
H 6.5772290528 -0.4058286738 -1.3460250246
H 5.3991736015 0.6994664468 -0.6226276981
H 4.8443808695 -2.1718691664 -1.5376171208
H 4.2688026173 -0.6658046467 -2.3178347264
H 3.6830523734 2.1116351798 2.3839092031
H 3.1237947275 2.6741564531 0.7777248737
H 1.3158523128 1.3413787644 2.8495606514
H 1.415005549 3.0934106519 2.5816485144
H 0.8185953317 2.0395100429 1.2953715372
H 0.5931934245 -2.0937217691 -1.6094675557
H 0.1789970023 -0.3430957315 -1.7014536541
H -1.8138583878 -0.1953393636 3.3932238408
H -1.3337076965 1.1567220601 2.3258287875
H -3.7107740802 1.7496863687 1.9710038086
H -4.220172996 0.4322574243 3.0421388369
H -3.3075683731 1.8047707533 3.6938441513
H -4.4293921065 -1.5838906138 0.7376326205
H -5.7393462629 -0.4707940259 0.242001982
H -5.4445366224 -1.2290718923 -2.1274463966
H -4.2103938164 -2.3822871076 -1.6035614957
H -5.8846970341 -2.5708320081 -1.0580831665
*
