! pbe def2-sv(p) def2/J RI DEFGRID1 loosescf d4 GCP(DFT/SV(P)) printgap
%output
    printlevel normal
end
* xyz 0 1
C 3.4770083683 0.3829530794 -2.4571572198
C 2.0552407821 0.7422314533 -2.0847279894
O 1.4368207108 -0.2829375234 -1.2833728137
P 1.9317112044 -0.6202152588 0.1800094686
S 2.6102390272 0.8637305359 1.2743744974
O 2.9650961868 -1.7895681902 -0.1339784019
C 3.6985421426 -2.4717196758 0.9022957447
C 5.0690831813 -1.8517579422 1.0951025471
S 0.3252131203 -1.706723729 0.9921657118
C -0.4441937481 -0.4463935979 2.0670292639
S -2.1641011679 -0.1251433506 1.6338148554
P -1.8177755561 0.7919373659 -0.2557291218
S -0.4550470949 2.1995159516 -0.1881030544
O -3.2672366131 1.263926821 -0.6911822737
C -3.9347716342 2.3453052713 -0.0064407166
C -5.1068893861 2.7813448655 -0.8613958489
O -1.4757927789 -0.3048719407 -1.3295390825
C -2.4112991222 -1.2272585301 -1.9473850036
C -3.0425421435 -2.1782830086 -0.9529255101
H 4.0948971266 0.3560874974 -1.5601932935
H 3.5040227692 -0.5933393341 -2.9340450937
H 3.8705915361 1.1332600258 -3.1357167637
H 1.4049733096 0.8152974038 -2.9578529352
H 2.0200483125 1.685574662 -1.5287988424
H 3.1222937259 -2.4436476608 1.8316989529
H 3.77346053 -3.5027710978 0.5518811719
H 5.6154738815 -2.4185778882 1.8418593515
H 5.6205402137 -1.8640610658 0.1591263054
H 4.9714776589 -0.822361613 1.4333444247
H 0.1413131868 0.4752379649 1.9985526012
H -0.4540261878 -0.830386711 3.0837363201
H -4.263503691 1.9777775966 0.9690282762
H -3.2170415161 3.1588430763 0.1408053166
H -5.6296234157 3.589203123 -0.3601778805
H -4.7554048637 3.1285514653 -1.828979464
H -5.7888813122 1.9494339786 -1.0100981894
H -3.168972864 -0.6400645815 -2.4686601843
H -1.7862527207 -1.7582782252 -2.667220526
H -3.6217035294 -2.9182102394 -1.4967329961
H -2.2744939863 -2.6840622062 -0.3714390168
H -3.7022816971 -1.6413695557 -0.2749179423
*
