! r2scan-3c def2/J RI DEFGRID2 scfconv6 printgap
%output
    printlevel normal
end
* xyz 0 1
C 3.3110724669 2.6603721254 -0.4123580204
C 2.0711549697 1.8255603339 -0.652925531
O 1.617235595 1.2260565199 0.5870399031
P 1.9217351159 -0.2795221896 0.946685103
S 1.4386429903 -0.7524186793 2.778270235
O 3.4677467651 -0.4003333256 0.5985559496
C 4.1885595307 -1.6234061016 0.8542137429
C 5.6699179264 -1.3123229871 0.7876501433
S 1.025724871 -1.4396303001 -0.6099893212
C -0.4943556206 -1.8977071621 0.2666872682
S -1.4601894279 -0.4844918317 0.8430091761
P -2.0974859143 0.287753869 -1.0499152487
S -1.9124865319 -0.9284673529 -2.5707650256
O -1.2906701182 1.6345593438 -1.2554355887
C -1.6424284114 2.9067188643 -0.6572384952
C -1.5184938187 2.8941889267 0.8521970532
O -3.5687683484 0.831875292 -0.7868978392
C -4.7329346563 0.003934849 -0.9562449365
C -4.788741522 -1.127506407 0.0493201733
H 3.1113019544 3.4125998379 0.3456507338
H 4.1277063549 2.0286056032 -0.0735505637
H 3.5948633279 3.1487265433 -1.3393674719
H 2.2566867525 1.0336154813 -1.3843862898
H 1.2341264304 2.4368033464 -0.9934785383
H 3.8998121246 -1.9960171207 1.8424725162
H 3.8979869783 -2.3555822343 0.0957526162
H 6.2320515684 -2.2227686924 0.9671129608
H 5.9247317097 -0.9204991991 -0.1928474951
H 5.9309187609 -0.5760046519 1.5425781997
H -0.2412400975 -2.4687861629 1.1585323639
H -1.0748773104 -2.4878890108 -0.4412639408
H -0.939568595 3.6052709914 -1.1146490375
H -2.660308481 3.1575074259 -0.9607574166
H -2.2565376795 2.2219587526 1.2867380137
H -0.5283454019 2.5609694726 1.1567468123
H -1.6883706642 3.8972454489 1.2309926284
H -5.5648428068 0.6978133702 -0.8275594544
H -4.7289174279 -0.390155738 -1.9771146855
H -3.9891906096 -1.840080498 -0.1480695143
H -4.6763156417 -0.7452522969 1.0607894041
H -5.7422724142 -1.6380764675 -0.0393438995
*
