! pbe def2-sv(p) def2/J RI DEFGRID1 loosescf d4 GCP(DFT/SV(P)) printgap
%output
    printlevel normal
end
* xyz 0 1
C 2.7357045046 0.4988169888 -3.3839126284
C 2.8553218587 0.8984990493 -1.9287816037
O 2.5217031228 -0.2531099627 -1.1262547593
P 2.1947744297 -0.1620459755 0.4196043367
S 1.1135561511 1.4065045635 0.9219294053
O 3.6544164054 -0.1821561691 1.0474095475
C 3.9954628654 -0.5851439976 2.3890550632
C 3.0718867576 -0.0067858698 3.4399944597
S 1.4778061516 -2.1002430813 0.7800827102
C -0.1286462721 -2.0182181865 -0.0583103274
S -1.3960829828 -1.093759128 0.8593113706
P -1.8618989632 0.4397668038 -0.5504290464
S -0.7571589699 0.4760383544 -2.1661355779
O -1.9421286046 1.8229314973 0.1799352661
C -2.2914080794 2.0591130235 1.5656266725
C -3.6031423525 1.4173911507 1.9586380961
O -3.4017079333 0.1762703867 -0.8735211076
C -3.8229558793 -0.9592698174 -1.6495351164
C -5.269860616 -0.7434979742 -2.0450486648
H 3.3687333973 -0.3603554271 -3.5843816735
H 1.7034038124 0.2435916206 -3.612151122
H 3.0428784574 1.3319819789 -4.0071944005
H 2.1639203555 1.7112849454 -1.6801779441
H 3.8733680082 1.2028362685 -1.6739302975
H 3.980437284 -1.6779254692 2.4196037825
H 5.018095645 -0.2242585723 2.5134143715
H 3.4250067715 -0.2939193789 4.4251904676
H 3.0444882151 1.0782043932 3.3681263638
H 2.0603968419 -0.3876288978 3.3007376434
H -0.4617306828 -3.0496600426 -0.1374204571
H -0.0034266494 -1.5587957189 -1.043351567
H -1.4639720878 1.6983008617 2.1826654928
H -2.3361999741 3.14763848 1.6229016334
H -3.5208725615 0.3322003242 1.917116302
H -3.8486774869 1.7128537231 2.9739679283
H -4.3938036494 1.7394625949 1.2858889281
H -3.1752169093 -1.0418338906 -2.529416451
H -3.7081835128 -1.8562825902 -1.0336741333
H -5.3624272523 0.1641866322 -2.6347170475
H -5.6083124168 -1.5898394817 -2.6335241198
H -5.887885898 -0.6509732239 -1.1569414666
*
