! pbe def2-sv(p) def2/J RI DEFGRID1 loosescf d4 GCP(DFT/SV(P)) printgap
%output
    printlevel normal
end
* xyz 0 1
C 5.3605302653 1.1067953673 0.3687677995
C 4.3858552956 1.693060819 -0.6326500459
O 3.3957323288 0.7294589699 -1.0396190104
P 2.2630631221 0.2123511186 -0.0520982039
S 1.6724306455 1.5407187755 1.2649292511
O 2.814162104 -1.1435248721 0.5733486519
C 2.8906065783 -1.4385580007 1.9841981209
C 1.9514076581 -2.5696859487 2.3511317688
S 0.9966457928 -0.4500083212 -1.6034697968
C 0.0575191045 -1.7121490434 -0.689105283
S -0.9145493477 -1.038558555 0.6754218394
P -2.3583243036 -0.0189543134 -0.5197576143
S -2.7526095959 -0.8440587737 -2.2477966632
O -1.831697161 1.4496090772 -0.7504027851
C -1.6023595894 2.4048550273 0.3116022987
C -2.7812096477 3.3454609431 0.4446208141
O -3.5500937949 0.2130646778 0.5035311021
C -4.1445054317 -0.8063147262 1.3313395606
C -4.6095629792 -2.010093413 0.5398800327
H 6.1537749851 1.8224736153 0.5606273673
H 4.8445804552 0.8920178748 1.3040544604
H 5.7894303765 0.1871989283 -0.0210234686
H 4.8795544687 1.9723842144 -1.564368734
H 3.8728080568 2.5623988736 -0.2081144704
H 3.930872885 -1.7170539608 2.1636647794
H 2.6475572183 -0.5315114984 2.5480538765
H 0.9149449697 -2.2652842383 2.2146682324
H 2.1549754367 -3.4434438829 1.7380065269
H 2.105725352 -2.8258671487 3.3943197775
H 0.7391133484 -2.4485936936 -0.2716725781
H -0.617775679 -2.1588584648 -1.4208480278
H -1.4091409568 1.8698391552 1.2457804722
H -0.6965655379 2.9388693895 0.0163604221
H -2.9653190475 3.843817859 -0.503246829
H -3.6727597966 2.7932461978 0.7296683967
H -2.556414814 4.087206157 1.2044888983
H -3.4116642853 -1.0992156606 2.0882895395
H -4.9827321853 -0.2930685288 1.8058060153
H -3.7574093055 -2.5191076756 0.09204807
H -5.1261085794 -2.697789455 1.2016081155
H -5.2815418312 -1.7031313108 -0.2580577733
*
