! pbe def2-sv(p) def2/J RI DEFGRID1 loosescf d4 GCP(DFT/SV(P)) printgap
%output
    printlevel normal
end
* xyz 0 1
C 3.2506631807 -0.2234178277 3.4225658188
C 2.006941842 -0.1158184206 2.5651689645
O 2.0804635383 -1.0402025897 1.4487901804
P 2.5166691711 -0.6138117357 0.0013164758
S 2.7301605547 -2.1544132441 -1.1843011577
O 3.8128211576 0.2650899478 0.2540919316
C 4.5704910709 0.8067587195 -0.8479933304
C 5.9068504812 1.271337152 -0.3059151801
S 1.0958510314 0.8410534303 -0.6741134296
C -0.1122240811 -0.3484171349 -1.2969046184
S -1.2588283121 -0.9206378609 -0.0238497451
P -2.7840063487 0.5206813803 -0.4501120789
S -3.2214712189 0.6519594679 -2.3555242124
O -2.2768905792 1.907147589 0.101522636
C -2.3550946613 2.3650348816 1.4745571599
C -1.5063279134 1.5292497576 2.4079623885
O -3.9761619498 0.1573121923 0.5306406759
C -5.0015676235 -0.7917907857 0.1834551834
C -4.4591506114 -2.1990674211 0.0456854131
H 3.3828441969 -1.2480803609 3.7583825264
H 4.1269122846 0.0742129408 2.8528376379
H 3.1444792009 0.4266214935 4.2853568733
H 1.8837627476 0.8987328153 2.1769501912
H 1.1142064691 -0.4207611986 3.1140212134
H 4.6919866561 0.0249275725 -1.6047189042
H 4.0018524811 1.6353868837 -1.2786539039
H 6.4918555049 1.6925715744 -1.1167713023
H 5.7557756663 2.027849498 0.4585101445
H 6.4463093749 0.4331633493 0.1260527119
H 0.426011392 -1.2186713108 -1.6784050898
H -0.6812106117 0.1360568214 -2.0923131281
H -1.9922130179 3.3920296463 1.4116819309
H -3.4030195638 2.3549873467 1.779119453
H -1.8994411012 0.516557912 2.471409228
H -0.4834967441 1.4900426226 2.0421891633
H -1.5161595317 1.9786734286 3.3958610091
H -5.7148847722 -0.7130611686 1.0051615374
H -5.4696997999 -0.4677846263 -0.7509460946
H -3.8973546966 -2.4798452284 0.933024375
H -5.2848569278 -2.8897498826 -0.0920585546
H -3.8008177059 -2.262074282 -0.8197227643
*
