! wb97x-v def2-tzvp def2/J RIJCOSX DEFGRID2 scfconv7 GCP(DFT/TZ) printgap
%output
    printlevel normal
end
%cpcm
    smd true
    smdsolvent "water"
end
* xyz 0 1
C -0.683485998223378 -0.5370581816045643 0.34982533854565306
C 0.6451562614201194 -0.4979029884367376 -0.3523582653223416
O 1.3592762692765201 0.6826764125696583 0.06001852610141156
O -1.501020984216578 0.5459650810771914 -0.13253037544343302
H -0.534983486990772 -0.45099231009397883 1.4351927389694834
H -1.159011824504237 -1.504921774538977 0.1391155035296022
H 0.49324988359875493 -0.4928549250051444 -1.440656741515624
H 1.2063403471357912 -1.4036300994540933 -0.08342192687321667
H 2.1622057082068395 0.7330201875314036 -0.4733168807701075
H -2.3147709779851366 0.5438946134778286 0.38624702387834386
*
