! pbe def2-sv(p) def2/J RI DEFGRID1 loosescf d4 GCP(DFT/SV(P)) printgap
%output
    printlevel normal
end
* xyz 0 1
C 3.2422619525 -2.3829106976 -1.7040627759
C 3.6870284354 -0.9372541389 -1.603804618
O 2.5841480711 -0.0524472104 -1.281223185
P 2.0481793384 0.3035393678 0.1560205295
S 0.9801577735 1.9512463952 0.040713122
O 3.4010704455 0.4451999162 0.9789661031
C 3.5299752376 0.3829995745 2.4118469305
C 2.5774490382 1.3148542218 3.1301864351
S 1.2221137888 -1.4362690854 1.0769681152
C -0.0052465275 -2.0357618275 -0.1406157665
S -0.4512390097 -0.840778778 -1.4257171898
P -1.9674761407 0.2003438107 -0.3810709632
S -2.5718640465 1.9033122359 -1.1325906304
O -1.378405944 0.1676198374 1.0902776457
C -1.7654305489 1.1310236632 2.0891923539
C -3.2282542297 1.007792919 2.4557195259
O -3.1299198066 -0.8859287555 -0.2200897624
C -4.1949553594 -1.0194685046 -1.1719580965
C -3.7152281521 -1.6059494761 -2.4848458999
H 2.3763856778 -2.4566412113 -2.3579278241
H 4.0543628849 -2.9692100435 -2.1227908693
H 2.9937387571 -2.7793971705 -0.7228405785
H 4.0308592011 -0.5618184868 -2.5689747019
H 4.4710382005 -0.8076609196 -0.8560964147
H 3.3646435317 -0.6524627154 2.722093507
H 4.5700810143 0.6636038613 2.5875939954
H 2.758656264 1.264963363 4.1988677174
H 2.7126458765 2.3375497596 2.7856513852
H 1.5480828764 1.0212891658 2.9272857179
H -0.894539633 -2.3177614634 0.4196388198
H 0.4243738036 -2.8906895501 -0.657408067
H -1.1149315055 0.9002842426 2.9348373953
H -1.5316882556 2.131445832 1.7104057198
H -3.8459435296 1.2667259681 1.5963510655
H -3.4544145686 -0.0102055458 2.7619363806
H -3.4511598455 1.6913282904 3.2687706293
H -4.9132084617 -1.6733905238 -0.6755296224
H -4.6374919232 -0.031339575 -1.334638576
H -3.2112508403 -2.5542346492 -2.3182274791
H -4.5657839629 -1.7592052844 -3.1411171377
H -3.0197305402 -0.9172165793 -2.9647081204
*
