  8
        -19.46579315
 C         -0.0001274648        0.0000177314       -1.8431063148
 C         -0.0000076326        0.0000259878       -0.3393665394
 Cl        -1.6077952070        0.4324060805        0.3092204226
 Cl         0.4294360243       -1.6085722547        0.3091477042
 Cl         1.1784198195        1.1761513945        0.3091387843
 H         -0.2643968975        0.9899503463       -2.2057572534
 H          0.9892674676       -0.2661711466       -2.2058183766
 H         -0.7253935473       -0.7237803090       -2.2056184487
