  24
        -25.26501040
 C          4.0332095723        0.3272860804       -0.1832221242
 C          2.6061943615        0.6627588508        0.2342423256
 C          1.6275289133       -0.4482144580       -0.1396253796
 C          0.1952463291       -0.1148635443        0.2703912810
 C         -0.7811974547       -1.2286820631       -0.0993797128
 C         -2.2205666838       -0.8836387014        0.2968470163
 C         -2.7405026965        0.2896371825       -0.4701904532
 C         -3.2069579204        1.3984608300        0.0729004454
 H          4.0903910693        0.1822217439       -1.2597303682
 H          4.7114875548        1.1311339495        0.0920571321
 H          4.3671306655       -0.5866058583        0.3030696463
 H          2.5721451279        0.8236731810        1.3141820085
 H          2.2952303237        1.5924770798       -0.2477780050
 H          1.9355961828       -1.3776229417        0.3457021685
 H          1.6651587057       -0.6118708822       -1.2193730032
 H          0.1580197529        0.0528575717        1.3494844277
 H         -0.1165837400        0.8122417647       -0.2166265608
 H         -0.4829893252       -2.1514635919        0.4029094622
 H         -0.7361562607       -1.4060706135       -1.1764067479
 H         -2.8568828079       -1.7482253526        0.0873026383
 H         -2.2681042969       -0.6773101093        1.3676251421
 H         -2.7116170245        0.1826435463       -1.5474062578
 H         -3.5746396473        2.2172901114       -0.5218837561
 H         -3.2441338431        1.5319284372        1.1418116716
