! pbe def2-sv(p) def2/J RI DEFGRID1 loosescf d4 GCP(DFT/SV(P)) printgap
%output
    printlevel normal
end
* xyz 0 1
C 0.6542850022 1.6861663698 -0.024554341
C 1.4227121712 0.3831782205 -0.2603699565
H 1.6308791634 0.2694557878 -1.3352659562
C 0.5581509923 -0.8061957548 0.1790236278
H 0.4249748248 -0.7702971027 1.2719264539
C -0.8168266891 -0.7367124879 -0.5004461264
H -0.6672619495 -0.8665847502 -1.5831882577
C -1.4740775266 0.6450417471 -0.2741695016
H -2.3439141158 0.7642247162 -0.931288322
O -0.6059129438 1.680020253 -0.6729375624
O -1.9700726551 0.8003626073 1.0145913736
O -1.5892048546 -1.7826887711 0.0342738384
O 1.2403372957 -1.9867176253 -0.1704345416
O 2.6195157979 0.4470602501 0.4708430643
H 1.1988771007 2.5266334432 -0.4533949886
H 0.5474055873 1.8507869509 1.0542936305
H -1.3112785593 0.552615097 1.6797186581
H -2.4782084039 -1.7760746779 -0.3461517408
H 0.6657840509 -2.7431749703 0.018998852
H 3.0773602908 -0.4025998715 0.3811810154
*
