  22
        -23.41814719
 C         -1.5709230526       -1.7071632112        0.4205017200
 C         -0.8972841149       -0.9078844451       -0.7025405555
 N          0.1525034715        0.0131353035       -0.3027262284
 C         -0.2899390275        1.1130065909        0.5404851011
 C         -1.3065165106        2.0167801595       -0.1482940966
 C          1.3319455440       -0.6478953507        0.2372037938
 C          2.6097245177        0.1160124800       -0.1033201245
 H         -0.8362540800       -2.2851820083        0.9766553800
 H         -2.0894166289       -1.0470015690        1.1115176845
 H         -2.2972916418       -2.3920459945       -0.0082381201
 H         -1.6541374030       -0.3327926831       -1.2387636890
 H         -0.4506931453       -1.6052681830       -1.4172223810
 H         -0.7007109778        0.7559133191        1.5025259824
 H          0.5964385889        1.7083165571        0.7692393089
 H         -1.4236811680        2.9317070384        0.4265955750
 H         -0.9567522418        2.2696890908       -1.1450918409
 H         -2.2791744436        1.5387301947       -0.2264146584
 H          1.2627231464       -0.7798005650        1.3309404882
 H          1.3965782646       -1.6405461304       -0.2139549933
 H          3.4755740322       -0.4604102422        0.2115142537
 H          2.6624320584        0.2795742504       -1.1755535580
 H          2.6407236832        1.0808766688        0.3950708975
  22
        -23.41814224
 C         -1.1969639472       -2.3087790131       -0.1952571207
 C         -1.2348664884       -0.8270718370        0.1725045018
 N         -0.0510654584       -0.1266416997       -0.3044306188
 C         -0.3068134649        1.2516029677       -0.6855565092
 C         -0.7243009555        2.2071505324        0.4399007211
 C          1.0891831109       -0.3122702159        0.5797024063
 C          2.4093482135        0.0950799209       -0.0656699598
 H         -0.3992884610       -2.8281606886        0.3283466736
 H         -2.1417317209       -2.7758726315        0.0696264374
 H         -1.0349135367       -2.4154406580       -1.2636494751
 H         -1.3613868624       -0.7218532039        1.2639197858
 H         -2.1065947834       -0.3776156657       -0.3083182865
 H          0.5955896758        1.6339137728       -1.1656228114
 H         -1.0952433378        1.2290470717       -1.4435722267
 H         -0.9311487435        3.1888617068        0.0229173416
 H         -1.6211956420        1.8469194092        0.9388057351
 H          0.0671817304        2.3090105927        1.1783571359
 H          0.9614567558        0.2242611246        1.5372965722
 H          1.1369514436       -1.3782319658        0.8110352275
 H          2.4795806290       -0.3368227183       -1.0598037120
 H          2.5011820673        1.1749570841       -0.1433852133
 H          3.2351342391       -0.2728033752        0.5376265460
  22
        -23.41807860
 C         -1.2553061505       -2.0554479725        0.3155848856
 C         -0.7115478338       -0.9250150176       -0.5563623181
 N          0.0459526064        0.0248065377        0.2450299495
 C         -0.7272147840        1.1599135214        0.7074261135
 C         -1.0494587657        2.2305443194       -0.3441978771
 C          1.3565915557        0.3580177065       -0.2806180175
 C          2.3480938014       -0.7785526777       -0.0427304637
 H         -0.4353197661       -2.5668348779        0.8110128127
 H         -1.9219360261       -1.6601168744        1.0771296313
 H         -1.8040217872       -2.7687591312       -0.2938258096
 H         -1.5472630172       -0.4352917350       -1.0758054797
 H         -0.0592622062       -1.3488677224       -1.3231294335
 H         -1.6599192521        0.7687602462        1.1206401147
 H         -0.1696725207        1.6242420585        1.5267472384
 H         -0.1372173730        2.6860171384       -0.7216699597
 H         -1.5921292466        1.8007326488       -1.1833154645
 H         -1.6653962268        3.0062878246        0.1019534894
 H          1.3266588236        0.5998523784       -1.3576508567
 H          1.7105323364        1.2444245353        0.2508710903
 H          2.3872529244       -1.0133860577        1.0168820777
 H          2.0536161739       -1.6742074499       -0.5828045686
 H          3.3383543884       -0.4819822044       -0.3781262528
  22
        -23.41807691
 C         -1.3718918365       -2.0258211040        0.3694055830
 C         -0.6512806178       -1.1899408773       -0.6973810655
 N         -0.0489101835        0.0474373460       -0.2417553481
 C         -0.9843261249        0.9985895485        0.3307275666
 C         -0.5333585763        2.4344282665        0.0725287077
 C          1.1767502843       -0.1342235614        0.5212825997
 C          2.3965192982       -0.1269669890       -0.3979294325
 H         -1.7592926993       -2.9350031554       -0.0814354704
 H         -0.6923460907       -2.3034220659        1.1719059156
 H         -2.2021652799       -1.4702302992        0.7981944628
 H         -1.3635652333       -0.9342594166       -1.4879226896
 H          0.1424704917       -1.7901995092       -1.1478045127
 H         -1.9508745158        0.8467290774       -0.1551172560
 H         -1.1243447764        0.8459993031        1.4150651554
 H         -1.2778271315        3.1298311642        0.4510463583
 H          0.4142193291        2.6417057145        0.5620749039
 H         -0.4098346143        2.5920104739       -0.9948119233
 H          1.2706874116        0.6835169047        1.2385020087
 H          1.1608940825       -1.0714189324        1.0970860066
 H          3.3062795675       -0.2296416280        0.1877563410
 H          2.3455459463       -0.9469728651       -1.1089486921
 H          2.4335998923        0.8056862259       -0.9530296854
  22
        -23.41806727
 C         -0.8827835019       -2.2690206071       -0.2258456394
 C         -1.1627164517       -0.8008470349        0.0851975823
 N         -0.0250499984        0.0313393206       -0.2552086470
 C         -0.3579357825        1.3894751049       -0.6334125577
 C         -1.0605541873        2.2332842162        0.4391038470
 C          1.1086106993       -0.0795196643        0.6515352700
 C          2.3692712842       -0.4902881343       -0.1081567692
 H         -1.7725018595       -2.8633671336       -0.0352770360
 H         -0.6018819315       -2.3748936196       -1.2696160373
 H         -0.0731836527       -2.6507861896        0.3900882482
 H         -1.4517226848       -0.7012768430        1.1468271817
 H         -2.0076050617       -0.4702121071       -0.5235449447
 H          0.5734112361        1.8800225880       -0.9269929266
 H         -0.9986682771        1.3359941671       -1.5190072308
 H         -0.4593836527        2.2896645055        1.3440349336
 H         -1.2173536857        3.2416817403        0.0665831794
 H         -2.0261572968        1.8034607463        0.6939990454
 H          1.2957098300        0.8718006811        1.1657422663
 H          0.8923639281       -0.8251699160        1.4216733546
 H          2.2131743930       -1.4461434435       -0.5992799965
 H          2.6062445381        0.2495764869       -0.8678070143
 H          3.2101221699       -0.5742845447        0.5754577395
  22
        -23.41805753
 C         -1.1042596503       -2.1322615018        0.2810392158
 C         -0.7606872965       -0.8860501880       -0.5343194509
 N          0.0122474322        0.0557411936        0.2635250077
 C         -0.7293849044        1.2191819286        0.7048841378
 C         -1.0329365449        2.2704726534       -0.3714380806
 C          1.3385346663        0.3408997457       -0.2483021024
 C          2.2760770157       -0.8466390325       -0.0461584306
 H         -1.6878654310       -2.8252726575       -0.3194890263
 H         -0.1958546946       -2.6266362240        0.6116214454
 H         -1.6810774807       -1.8547920374        1.1589540056
 H         -1.6915740151       -0.4248552879       -0.8850184948
 H         -0.1909067901       -1.1783208965       -1.4219577991
 H         -1.6674887857        0.8595693446        1.1351771300
 H         -0.1544181223        1.6895096397        1.5084802447
 H         -0.1122234624        2.6986406623       -0.7600371855
 H         -1.5836880781        1.8294167288       -1.1994571337
 H         -1.6333440003        3.0688381509        0.0554778877
 H          1.3239334747        0.6145601433       -1.3188154403
 H          1.7306262848        1.1946086744        0.3096508151
 H          1.9508595728       -1.7035530845       -0.6295805052
 H          3.2827695896       -0.5792055630       -0.3564231116
 H          2.2908786735       -1.1272412761        1.0029520900
  22
        -23.41806588
 C         -1.4487605615       -2.0160805561       -0.3906741442
 C         -0.9979330042       -1.0081020586        0.6754424287
 N         -0.0029808133       -0.0427457082        0.2552717881
 C         -0.5161607218        1.0163127736       -0.6019963162
 C         -0.7132908024        2.3063782706        0.1932758807
 C          1.2580238285       -0.6168407185       -0.1723788260
 C          2.4160486839        0.3432508368        0.0879445279
 H         -2.2281137722       -2.6545688672        0.0157253717
 H         -1.8434228507       -1.5045318856       -1.2659332608
 H         -0.6163442451       -2.6413569198       -0.7040506298
 H         -0.5850570913       -1.5548698768        1.5288342051
 H         -1.8644202532       -0.4446545955        1.0303910683
 H          0.1850618304        1.2002440504       -1.4209912219
 H         -1.4730047228        0.7261813475       -1.0542028233
 H         -1.4171162199        2.1416152153        1.0045748112
 H          0.2314202097        2.6287763189        0.6209393403
 H         -1.0981342493        3.0915692591       -0.4523578964
 H          1.4212449185       -1.5264325097        0.4103975455
 H          1.2494715994       -0.8971587774       -1.2409650810
 H          3.3580219859       -0.1366741192       -0.1641583591
 H          2.3165110895        1.2452989927       -0.5095109157
 H          2.4300044879        0.6236450482        1.1371291433
  22
        -23.41805225
 C         -1.8407595538       -1.7350561787       -0.0462337416
 C         -0.4001749353       -1.3502649121       -0.3760150371
 N         -0.0375435008       -0.0888684902        0.2482417966
 C         -0.5394924249        1.0845785892       -0.4496970154
 C         -0.9287079589        2.1901576613        0.5285845128
 C          1.3578602172        0.0018030258        0.6348696659
 C          2.3887132950       -0.1230018091       -0.4955322336
 H         -2.5455358671       -1.0218929303       -0.4648509028
 H         -2.0622392192       -2.7182366759       -0.4528569670
 H         -1.9746061903       -1.7574548578        1.0312505872
 H         -0.2658337011       -1.3260651694       -1.4710892544
 H          0.2618795827       -2.1214454223        0.0241284023
 H          0.1906283715        1.4765630217       -1.1760290076
 H         -1.4278236748        0.7912141351       -1.0113761280
 H         -1.3864636918        3.0156222900       -0.0100699098
 H         -1.6367804258        1.8030837105        1.2553752941
 H         -0.0595682806        2.5663352248        1.0610398738
 H          1.4951406980        0.9606080367        1.1386911414
 H          1.5413248743       -0.7876090725        1.3702235194
 H          3.3896577836       -0.0231341418       -0.0851108998
 H          2.3098425996       -1.0904005357       -0.9857751686
 H          2.2459650529        0.6548853948       -1.2420225733
  22
        -23.41804236
 C         -1.4797867224       -1.9096187505        0.3153502177
 C         -0.6314385115       -0.9809288977       -0.5493794801
 N          0.1044966026       -0.0193173107        0.2565957612
 C         -0.6930670628        1.0970473268        0.7299945449
 C         -1.1130061060        2.1327497752       -0.3219921398
 C          1.3808139652        0.3708727082       -0.3209666487
 C          2.4518364741       -0.6866113843       -0.0626331989
 H         -0.8593351666       -2.3605327910        1.0841635374
 H         -2.2907621125       -1.3706048113        0.7970729283
 H         -1.9090919471       -2.6949090919       -0.3012218178
 H         -1.2710201265       -0.4890081541       -1.3008449919
 H          0.0963347805       -1.5865370436       -1.0917155144
 H         -1.5869218309        0.6841856195        1.2012430958
 H         -0.1115764804        1.5995643074        1.5089928697
 H         -1.7001608695        2.9133539487        0.1535725497
 H         -0.2413266426        2.5884332600       -0.7856377974
 H         -1.7193414683        1.6755168225       -1.1003786958
 H          1.3039717472        0.5620104178       -1.4050040677
 H          1.6934895687        1.3004106498        0.1599831616
 H          2.2147309348       -1.6206717229       -0.5645304835
 H          3.4129505380       -0.3339416229       -0.4271872465
 H          2.5246163976       -0.8789933459        1.0036945810
  22
        -23.41806327
 C         -1.4427590333       -2.0255066432        0.3834403713
 C         -0.7095002078       -1.2214749901       -0.6990916465
 N         -0.0605557027       -0.0049332443       -0.2552051432
 C         -0.9546555434        0.9913941556        0.3021963540
 C         -0.4092174367        2.4014150593        0.0904730723
 C          1.1662441941       -0.2172479445        0.4997464024
 C          2.3911190513        0.0679785780       -0.3685388071
 H         -1.8453127654       -2.9377523209       -0.0478579257
 H         -0.7659545364       -2.2952557795        1.1913514547
 H         -2.2635534480       -1.4474716666        0.8009274062
 H         -1.4234731103       -0.9461312453       -1.4814523068
 H          0.0593149142       -1.8484472347       -1.1575523002
 H         -1.9108950953        0.9050503755       -0.2192332789
 H         -1.1412591467        0.8304402157        1.3791721382
 H          0.5205743568        2.5453693869        0.6338294286
 H         -0.2211187334        2.5664419671       -0.9663631286
 H         -1.1317350436        3.1335488127        0.4412630162
 H          1.1814329396        0.4399001516        1.3742404108
 H          1.2244819953       -1.2485839420        0.8690658476
 H          3.3023823861       -0.0949631211        0.2011804797
 H          2.3955110440       -0.5881890672       -1.2345963007
 H          2.3697974457        1.0956155998       -0.7188073275
  22
        -23.41807455
 C         -0.9363739938       -2.2734457570        0.1462175012
 C         -1.1643532616       -0.8008030849       -0.1864813829
 N         -0.0434921711        0.0109327925        0.2476651554
 C         -0.3849010118        1.3694990550        0.6176777022
 C         -1.0072015319        2.2332160130       -0.4880861060
 C          1.1510358007       -0.1016834535       -0.5764571821
 C          2.3707786781       -0.4278960788        0.2838251915
 H         -0.7467498151       -2.3827738406        1.2099517437
 H         -1.8160925801       -2.8534640291       -0.1196894428
 H         -0.0833773607       -2.6695129525       -0.3979921199
 H         -2.0503302142       -0.4556669036        0.3515829827
 H         -1.3639197742       -0.6959192889       -1.2677335090
 H         -1.0820710641        1.3149154207        1.4595025954
 H          0.5307956657        1.8462746090        0.9755353052
 H         -1.9579905028        1.8169307383       -0.8120102825
 H         -1.1784729472        3.2384687892       -0.1132657982
 H         -0.3469903943        2.2952807154       -1.3504933267
 H          1.0097658628       -0.8959798937       -1.3133950949
 H          1.3405385664        0.8264709248       -1.1327098255
 H          3.2569552256       -0.5181371440       -0.3389142067
 H          2.5358207765        0.3568170504        1.0170542735
 H          2.2111192550       -1.3623691671        0.8135431984
  22
        -23.41806143
 C         -1.0601955087       -2.2797796887        0.1734663503
 C         -1.1905049967       -0.8065057466       -0.2068607390
 N         -0.0434790068       -0.0429552401        0.2542416843
 C         -0.3483454513        1.3280307393        0.6173195131
 C         -0.9258073862        2.2148136942       -0.4944349691
 C          1.1434069174       -0.1880230656       -0.5745048331
 C          2.4106063144       -0.2280423320        0.2763872032
 H         -0.2117635891       -2.7418075127       -0.3238479415
 H         -0.9188017245       -2.3684607376        1.2466037965
 H         -1.9614673710       -2.8155670017       -0.1118300106
 H         -2.0781767244       -0.4012042582        0.2840178047
 H         -1.3384001170       -0.7182305943       -1.2969426175
 H         -1.0603113394        1.2926214363        1.4476539326
 H          0.5734481228        1.7784609061        0.9911315209
 H         -1.0896024490        3.2176623270       -0.1098349892
 H         -0.2414839909        2.2790754612       -1.3373813317
 H         -1.8746584000        1.8204014032       -0.8498439056
 H          1.0647398150       -1.1269257078       -1.1250961421
 H          1.2265210625        0.6199695493       -1.3184426412
 H          3.2752313677       -0.4137182653       -0.3553564074
 H          2.5597809419        0.7132268852        0.7981230593
 H          2.3316742097       -1.0211150385        1.0140547020
  22
        -23.41756242
 C         -1.5405515651       -1.8235727125        0.5269076162
 C         -0.5176088143       -1.3021800883       -0.4775198965
 N         -0.0024376271        0.0007704359       -0.0842975512
 C         -0.8926235627        1.0929854173       -0.4480351464
 C         -0.7834362502        2.2530742736        0.5365332237
 C          1.3684166134        0.2208825739       -0.5201101011
 C          2.3670090153       -0.4416148874        0.4238410552
 H         -1.8559974335       -2.8250837758        0.2469173228
 H         -1.0942286349       -1.8540875226        1.5163672310
 H         -2.4175486695       -1.1833194314        0.5654803169
 H         -0.9628050605       -1.2707355671       -1.4884473454
 H          0.3192495166       -2.0016430469       -0.5112271849
 H         -0.6941381428        1.4491037445       -1.4751361268
 H         -1.9168812634        0.7174369460       -0.4252314962
 H          0.2099727994        2.6928103143        0.5196420922
 H         -1.5065581111        3.0232343233        0.2817722935
 H         -0.9832423969        1.8952737206        1.5421176082
 H          1.5259990208       -0.1416684304       -1.5520859623
 H          1.5556582593        1.2959039503       -0.5198531662
 H          2.2514331160       -1.5219655675        0.4257582722
 H          3.3813084170       -0.2032470934        0.1150805795
 H          2.2072890653       -0.0776495367        1.4343805514
  22
        -23.41739011
 C         -0.8581738598       -2.4131036904       -0.1826282085
 C         -0.8818053509       -1.0921724672        0.5782370306
 N         -0.3900397064        0.0319316546       -0.2061383270
 C         -0.6403962692        1.2888675197        0.4853221981
 C         -0.3624072226        2.5153889682       -0.3765350354
 C          0.9706037931       -0.1250616962       -0.6959900008
 C          2.0816191718       -0.1990749782        0.3593575951
 H          0.1517036234       -2.8011989371       -0.2828139002
 H         -1.4507318507       -3.1469769458        0.3573056969
 H         -1.2852768615       -2.2764107063       -1.1719448897
 H         -0.3332407806       -1.2038119809        1.5312708292
 H         -1.9210147834       -0.8602802624        0.8314630150
 H         -1.7023006658        1.2889018525        0.7501879451
 H         -0.0709566493        1.3628640545        1.4297187691
 H          0.7033978364        2.6867288443       -0.4998112425
 H         -0.8167375246        2.3889904670       -1.3550305058
 H         -0.7931600285        3.3920523856        0.1000331473
 H          0.9924760398       -1.0323852665       -1.3017516167
 H          1.1703454196        0.7121922737       -1.3665934313
 H          3.0411549125       -0.3137023307       -0.1373995618
 H          2.1121125561        0.7077649449        0.9587526877
 H          1.9350218550       -1.0486953095        1.0220851835
  22
        -23.41726520
 C         -0.9101401194       -2.0801786128        0.6910930068
 C         -0.9747932443       -1.2076372716       -0.5703121746
 N         -0.2452701414        0.0425235706       -0.5617430306
 C         -0.7547988524        1.0325607895        0.3686151593
 C         -0.3654261545        2.4508885690       -0.0396771415
 C          1.1996233366       -0.0512598198       -0.6578512453
 C          1.9958006822       -0.1821443765        0.6478925867
 H         -1.6087233022       -2.9070478454        0.5920442100
 H          0.0855363466       -2.4919553942        0.8322200684
 H         -1.1820018676       -1.5033891926        1.5717900883
 H         -2.0231209108       -0.9575222801       -0.7648684967
 H         -0.6120358770       -1.7893855816       -1.4227588266
 H         -1.8452095135        0.9522924734        0.3493129074
 H         -0.4289484055        0.8515568944        1.4067262538
 H          0.6991184674        2.6222451532        0.0920714681
 H         -0.6189123966        2.6165662616       -1.0827723595
 H         -0.9063972733        3.1669516234        0.5732920833
 H          1.4210049774       -0.9093244883       -1.2967166701
 H          1.5502368642        0.8445124788       -1.1820335851
 H          1.6714338448       -1.0394966821        1.2302533405
 H          3.0486040563       -0.3069045893        0.4075906281
 H          1.8905446535        0.7100630387        1.2597844474
  22
        -23.41706284
 C         -1.6465170591       -1.6043830326        0.4983437132
 C         -0.8782629874       -1.1381935533       -0.7463064174
 N          0.1425672633       -0.1257102989       -0.5704623395
 C         -0.2977025563        1.2542296541       -0.5558019416
 C         -0.9477634526        1.7920942259        0.7268319821
 C          1.1752029631       -0.4803174093        0.3855054997
 C          2.4790667980        0.2742651860        0.1374343400
 H         -2.3400417278       -2.3914795586        0.2135535994
 H         -0.9645427368       -2.0019573047        1.2456644943
 H         -2.2140498317       -0.7933291091        0.9445806472
 H         -1.5894486614       -0.7575946375       -1.4835318699
 H         -0.3825425463       -2.0130258915       -1.1846257362
 H          0.5773597740        1.8697113688       -0.7818084227
 H         -1.0009304137        1.3730423120       -1.3847604527
 H         -1.1165674665        2.8604436020        0.6181842564
 H         -1.9047664892        1.3148273473        0.9179692552
 H         -0.3007869916        1.6340609087        1.5859493621
 H          0.8615155779       -0.3236669920        1.4315248544
 H          1.3637403444       -1.5496432941        0.2558238351
 H          3.2751467965       -0.1769270420        0.7237700315
 H          2.7424259055        0.2199119569       -0.9149658349
 H          2.3943163113        1.3183934229        0.4253346060
  22
        -23.41697814
 C         -2.0387225412       -1.3863527306        0.3783794054
 C         -0.7204227624       -1.4050517291       -0.3883927984
 N          0.1102424558       -0.2603062225       -0.0599026560
 C         -0.4266958998        1.0035554113       -0.5544059051
 C         -0.8204343554        1.9317754086        0.5926882660
 C          1.5119351475       -0.4553785486       -0.3847531988
 C          2.4106456871        0.5091531838        0.3821403892
 H         -1.8402172462       -1.3036327479        1.4428619040
 H         -2.6615551206       -0.5501717156        0.0735515462
 H         -2.5833183009       -2.3078332041        0.1899988805
 H         -0.9244779167       -1.4659978820       -1.4748167860
 H         -0.1701977134       -2.3061036140       -0.1060000785
 H          0.3160235466        1.5054880670       -1.1858192262
 H         -1.3042793233        0.8172888637       -1.1847147721
 H         -1.2166792679        2.8639805210        0.1975031969
 H         -1.5767037906        1.4618431860        1.2138975707
 H          0.0432417597        2.1501790447        1.2131864400
 H          1.7793370832       -1.4759971466       -0.0997329821
 H          1.6998242583       -0.3525823422       -1.4709681687
 H          3.4526996182        0.2620635624        0.1969780773
 H          2.2409596549        1.5370568700        0.0744885025
 H          2.2106908379        0.4258973645        1.4463072107
  22
        -23.41649070
 C         -1.5556379061       -1.6604274371        0.2873972858
 C         -0.6958352499       -0.8730932233       -0.7109258946
 N          0.1979935529        0.1185903467       -0.1434364212
 C         -0.4357049010        1.1699805661        0.6329877421
 C         -1.4594094338        1.9599849309       -0.1753635018
 C          1.3826513386       -0.4495878064        0.4896640461
 C          2.6075309547       -0.2461891373       -0.4015087097
 H         -2.2682618553       -1.0076978951        0.7852733929
 H         -2.1078221132       -2.4337003293       -0.2393737796
 H         -0.9349603536       -2.1344675677        1.0451384999
 H         -1.3495972359       -0.3666365209       -1.4244438561
 H         -0.0730625103       -1.5698837596       -1.2775507133
 H         -0.9116924034        0.7848073240        1.5533936505
 H          0.3618378878        1.8536717534        0.9371098342
 H         -1.7437595612        2.8520642564        0.3764433050
 H         -1.0269837447        2.2572719778       -1.1263528140
 H         -2.3558711013        1.3757730475       -0.3633567806
 H          1.5579605655        0.0293872614        1.4578277863
 H          1.2505253367       -1.5211805331        0.6790922192
 H          2.4541910858       -0.7300177135       -1.3620559520
 H          2.7682386476        0.8139987470       -0.5741971229
 H          3.4916162483       -0.6677034436        0.0695287127
  22
        -23.41605977
 C         -1.1542205869       -1.6363957627        0.7550113111
 C         -0.9724659247       -1.0190205197       -0.6389114614
 N          0.0510203746       -0.0141838496       -0.7948580352
 C         -0.3274093355        1.3694202205       -0.6398083556
 C         -0.9254805547        1.7946496853        0.7087753607
 C          1.4139548021       -0.3821468221       -0.4971374947
 C          1.9262567018       -0.1155619270        0.9254117087
 H         -1.3345094694       -0.8728545124        1.5060159692
 H         -2.0055391686       -2.3127872929        0.7379140862
 H         -0.2733280562       -2.2063823492        1.0391217086
 H         -1.9146560992       -0.5648460998       -0.9554586361
 H         -0.7456860270       -1.8329997919       -1.3404919396
 H          0.5648884039        1.9674177492       -0.8407661301
 H         -1.0630837617        1.6001792675       -1.4219587202
 H         -1.8834814906        1.3080804105        0.8731921647
 H         -0.2615160081        1.5478850321        1.5320392756
 H         -1.0869463426        2.8700376181        0.7048532417
 H          1.5113463974       -1.4476407370       -0.7194453736
 H          2.0631425344        0.1620985160       -1.1961204083
 H          2.9338334646       -0.5129111832        1.0226089503
 H          1.9615809675        0.9522232359        1.1257878918
 H          1.2940347313       -0.5908166202        1.6696842714
  22
        -23.41435245
 C         -1.2552890959       -1.6402043703        0.7585444422
 C         -0.8374038257       -1.1500989857       -0.6364214592
 N          0.0271675618       -0.0047047703       -0.7144892944
 C         -0.5381292540        1.3146056454       -0.6420705269
 C         -0.8396417457        1.8909306029        0.7499332522
 C          1.4450827941       -0.1765812348       -0.5549195291
 C          2.0045067658       -0.2350526116        0.8748883800
 H         -1.9082171027       -2.5031498804        0.6511948979
 H         -0.3908154691       -1.9361119126        1.3452513710
 H         -1.7936989297       -0.8685655891        1.3005754527
 H         -1.7466308300       -0.9125588678       -1.2007892438
 H         -0.3334346517       -1.9766916710       -1.1509900717
 H          0.1543169127        1.9956814628       -1.1503055042
 H         -1.4726380307        1.3024019687       -1.2151532678
 H         -1.2614735808        2.8869381549        0.6384252213
 H         -1.5562287295        1.2735467101        1.2830346040
 H          0.0638223166        1.9666822562        1.3472929346
 H          1.7218507095       -1.1051641496       -1.0676039394
 H          1.9363908117        0.6515021216       -1.0791288732
 H          1.5798577933       -1.0670594799        1.4285522802
 H          3.0828423423       -0.3680436601        0.8294902447
 H          1.7952679334        0.6830850119        1.4156206959
