! pbe def2-sv(p) def2/J RI DEFGRID1 loosescf d4 GCP(DFT/SV(P)) printgap
%output
    printlevel normal
end
* xyz 0 1
C 3.9355251792 -0.6008207875 -2.7249089201
C 4.2056287333 0.4797257917 -1.6978946864
O 3.7440619043 0.1058754412 -0.3886588771
P 2.2041552624 -0.0570575936 -0.0388651987
S 1.0616016053 1.3135579204 -0.8677916041
O 2.210697897 -0.1026046944 1.5422694058
C 2.1315811718 1.0772784095 2.3668826978
C 3.3254594788 1.9873816826 2.1761738338
S 1.8629833604 -2.1030733143 -0.4170139809
C 0.116396366 -2.2379848962 0.039869984
S -1.0025601536 -1.476032336 -1.1911326176
P -2.1303305147 -0.2644528303 0.1128277976
S -1.3064960905 0.3289909671 1.7954107058
O -3.3605901468 -1.2435046668 0.3054829728
C -4.3138561745 -1.0979776358 1.3782589574
C -5.1256896477 0.17390215 1.2529821778
O -2.7440472738 0.8692561434 -0.8060481155
C -2.203558062 2.1923015114 -0.9717672958
C -3.3561014773 3.1399641911 -1.2346357447
H 4.333369023 -1.5533600389 -2.3840633992
H 2.8620847385 -0.7069388687 -2.8799372709
H 4.4018668714 -0.3284587889 -3.6662711924
H 3.7127549881 1.4144304823 -1.984928745
H 5.274303371 0.6487670834 -1.5600515864
H 1.1979026373 1.5997922319 2.135575782
H 2.0779429133 0.6779771843 3.3805762012
H 3.3150215062 2.4068422721 1.1707425477
H 3.2761901107 2.7974297211 2.8970677748
H 4.2476123145 1.4294367934 2.3165199972
H -0.0450177485 -1.757343281 1.0076911497
H -0.0961911192 -3.3025321745 0.0830564174
H -4.9377156365 -1.98829055 1.2905092378
H -3.7686429307 -1.1154771451 2.3274640513
H -5.9039542401 0.1804019635 2.0097502085
H -4.4809502865 1.0392810077 1.4018259176
H -5.576779935 0.2353562589 0.2660645621
H -1.6525564114 2.4670131404 -0.0660358465
H -1.5007084209 2.1712527735 -1.8083670921
H -4.0242668106 3.1708669229 -0.3783405332
H -2.9597999601 4.13345271 -1.4161142212
H -3.9126246128 2.8086367468 -2.1063109052
*
