! wb97x-v def2-tzvp def2/J RIJCOSX DEFGRID2 scfconv7 GCP(DFT/TZ) printgap
%output
    printlevel normal
end
* xyz 0 1
C -1.1010367379518047 0.1916773613459859 0.0023206064035483243
C -0.19169574132584757 -1.1011679072732743 -0.0024137102494494727
C 1.1010441448631245 -0.19167515158261134 0.0024517432119257614
C 0.19170318040661732 1.101171115239047 -0.0023591361038150017
F 0.32083721566640333 1.853196659391283 -1.1064693266922356
F 0.32290702521113424 1.8654816164153893 1.0927993337884427
F 1.86544515523603 -0.3229358399299956 -1.0926300413528087
F 1.853002219295499 -0.32075520724103296 1.1066064142048648
F -0.3230409443506544 -1.865504712478931 1.0927102330079055
F -0.3206857016495822 -1.8531676994446364 -1.10655803411582
F -1.8531296170312113 0.32072414836578156 1.1063888634889005
F -1.865304560303616 0.3229702440780804 -1.092849981263482
*
