! pbe def2-sv(p) def2/J RI DEFGRID1 loosescf d4 GCP(DFT/SV(P)) printgap
%output
    printlevel normal
end
* xyz 0 1
C 1.9677091191 -1.947364633 -2.4080393118
C 2.4856287506 -0.5317014034 -2.5538393904
O 2.0158928315 0.3569384551 -1.5090895219
P 2.2174385857 0.1453181025 0.0390288311
S 2.1240331669 1.8460202556 1.0072423129
O 3.6241895606 -0.6024835992 0.0522463789
C 4.1767866289 -1.3221522127 1.1682286374
C 4.4631835657 -0.4325915056 2.3603824547
S 0.8609441581 -1.3689364885 0.7070439181
C -0.0716013008 -0.440217101 1.9582050738
S -1.8619943759 -0.6559646605 1.8075081626
P -2.1606564305 0.1407391268 -0.1168946099
S -0.9684911349 1.5783612267 -0.7481514002
O -3.7214331115 0.4418210011 -0.1444068727
C -4.4471899003 1.2039576874 0.8366762224
C -3.8182569209 2.5521322895 1.1213985506
O -2.0839486627 -1.1705587976 -1.0057502404
C -1.9072249412 -1.1223239156 -2.4334216199
C -3.1636685559 -0.6485791563 -3.133070538
H 2.2799460602 -2.5267544205 -3.2713205252
H 2.3676422891 -2.4095484314 -1.5073038489
H 0.882557053 -1.9528814844 -2.3472722621
H 2.1130069584 -0.0579720453 -3.463796768
H 3.5770757165 -0.51194768 -2.5451673173
H 3.4830888645 -2.123448563 1.4395260548
H 5.0961596139 -1.7500328266 0.7639949491
H 3.53753921 -0.0233391682 2.7606471953
H 4.9586468599 -1.0145426108 3.1307901106
H 5.1017774937 0.3972470304 2.0680838617
H 0.1938710818 0.6178734665 1.8628082446
H 0.182982957 -0.8208759919 2.9444395499
H -5.4392392685 1.3128640329 0.3946441607
H -4.511358878 0.6062976463 1.7501830664
H -3.6996014692 3.1196376664 0.201067155
H -4.4485161852 3.1081467083 1.8079374556
H -2.8342746957 2.4217976881 1.571369011
H -1.0686438686 -0.453085469 -2.6579501297
H -1.656094918 -2.1494234429 -2.7032624247
H -3.3722291985 0.3827037068 -2.8512497603
H -3.0217226648 -0.702925201 -4.2079280879
H -4.0083654163 -1.2679931367 -2.8444575626
*
