! r2scan-3c def2/J RI DEFGRID2 scfconv6 printgap
%output
    printlevel normal
end
* xyz 0 1
C 2.6060726476 -2.7466440858 0.5936623116
C 3.3248649894 -1.7288876967 -0.2766732356
O 2.3562204553 -0.8579517171 -0.8931064489
C 2.1385365082 -0.9398221615 -2.1935386499
O 2.7576226023 -1.6549537572 -2.9487843439
C 1.0271013711 -0.0139960346 -2.645274657
C 0.1753536197 0.499154202 -1.4901767105
H -0.5888134432 1.1862454596 -1.8709059168
C 1.030632259 1.2849016509 -0.5113789632
O 1.8305831146 2.1109063639 -0.8902925815
O 0.7886837517 0.999694974 0.7489046463
C 1.5393515566 1.7201102335 1.7494087857
C 1.6225680139 0.8816823044 3.0086714487
S -0.6929679794 -0.8839124494 -0.6820095241
P -1.9281229712 0.2473245822 0.6303504653
S -2.1526807731 2.1528874194 0.2310146148
O -3.2990538911 -0.5835592689 0.5934199802
C -4.1298449791 -0.5935973251 -0.5711411178
O -1.4731339555 -0.051440487 2.1117652441
C -1.3749113255 -1.4056922123 2.5996997076
H 1.9887070906 -2.2366021923 1.3282960381
H 1.9687553016 -3.3789952085 -0.0192721944
H 3.3381395524 -3.3633785081 1.1041496795
H 3.9069841318 -2.2132727639 -1.0653000289
H 3.9708331878 -1.079368412 0.3177539073
H 0.4180925745 -0.5444491857 -3.3776088043
H 1.4963441013 0.8403365468 -3.1410011473
H 2.5268137491 1.9372980938 1.3310127205
H 1.0175682856 2.6651162214 1.9297109846
H 0.626652246 0.7189383605 3.4085122442
H 2.0864328961 -0.0766219544 2.7935521582
H 2.2202355274 1.4110348783 3.7434130318
H -4.3081621276 0.4266432577 -0.9148438692
H -5.0630568266 -1.0573134078 -0.2620533428
H -3.6547030264 -1.1759740043 -1.3605389846
H -0.8953234415 -1.330660587 3.5721031231
H -0.7729893042 -2.0045685288 1.9160086274
H -2.3695353997 -1.8367264407 2.6925193489
*
