! wb97x-v def2-tzvp def2/J RIJCOSX DEFGRID2 scfconv7 GCP(DFT/TZ) printgap
%output
    printlevel normal
end
* xyz 0 1
C 5.9019821841385385 -1.3472047238187181 0.4668404837125259
C 4.588083219596239 -1.4760535167035653 -0.25814394191781864
O 3.7695017754806064 -0.3103510861572031 0.10996838005006328
P 2.4974068168055927 0.1329823520194742 -0.770386710019255
S 2.7318912692918946 0.38212837887879697 -2.6839513176706604
O 2.085745166904234 1.5041920962560427 -0.05230552133222112
C 1.8759206120574592 1.5904061280749173 1.4040803275475449
C 1.0418120480587043 2.8174635182591476 1.6636878839880127
S 1.1027832523295484 -1.3656873448053855 -0.2023554642118926
C -0.21541739158466988 -1.1015033800896048 -1.453446934541142
S -1.0589025153359641 0.5362103801222718 -1.4769737494100739
P -2.36499714479828 0.4304352674067067 0.1729338584738971
S -3.565760516130725 1.962814098895912 0.13244689206670204
O -1.3911589028937874 0.278647155344332 1.4357345766872118
C -1.8167943241084685 0.656446497643758 2.7940803732540878
C -2.825501392557377 -0.3121734752240874 3.360034961245409
O -3.023362635234484 -1.0400718897432695 0.147100820253418
C -4.056663254466859 -1.3742192475004673 -0.8462073386774247
C -5.379220496698404 -1.5504521021342548 -0.14425902539986538
H 6.522520793215936 -2.21696719992663 0.23024992586067736
H 6.435064083942369 -0.4456312866431729 0.1525013414465975
H 5.750945338224826 -1.3159865797559551 1.54954049018576
H 4.044731579320161 -2.3773425183630645 0.04165513104730407
H 4.722493391596187 -1.477286853516446 -1.3444306484229622
H 1.3709991529799843 0.6799005185615626 1.743170774545675
H 2.8608057374114266 1.6549852600720123 1.8749524021013595
H 1.5511996969624564 3.718502603356804 1.310060557848253
H 0.06753581696431814 2.741729676563533 1.1715088971506757
H 0.8795654972509681 2.9143037088367603 2.7417204262390102
H -0.9490190026109748 -1.8945126214409926 -1.2820108410633893
H 0.20980861888910685 -1.2169120412522072 -2.4545542614657223
H -0.8841379815028417 0.645137048814562 3.3616931064143394
H -2.2026894361120224 1.6798294063230337 2.7588948102837074
H -3.7720130887252914 -0.27684223312922335 2.811900719530568
H -2.439919369834656 -1.3354874655805038 3.3408352040743585
H -3.025153723993555 -0.03747868263010927 4.401095199323703
H -4.103069539946372 -0.5886039285771797 -1.6071801747302603
H -3.7148032856970734 -2.2994611781632757 -1.3167742664343138
H -5.313018984538386 -2.3276515699691114 0.6225462252736073
H -5.701543751282093 -0.6148213747714566 0.3213083364451798
H -6.134594576480076 -1.8521297806720023 -0.8770971202011509
*
