! pbe def2-sv(p) def2/J RI DEFGRID1 loosescf d4 GCP(DFT/SV(P)) printgap
%output
    printlevel normal
end
* xyz 0 1
C 1.5129546715 -3.1659463362 -0.8200543078
C 2.6333961168 -2.3151087205 -1.3856790933
O 3.0778422979 -1.3255942656 -0.4417636491
P 2.356685088 0.0839406564 -0.2764098268
S 1.8828374152 0.9816944455 -1.9466306266
O 3.4247334335 0.921663764 0.5265355332
C 4.0983799933 0.4433263169 1.7214059617
C 3.5678947537 1.1540596662 2.9507584643
S 0.8017795371 -0.3330617057 1.1203368243
C 0.1220997839 1.3360858698 1.2325695527
S -1.1253349828 1.7741768225 -0.0357629146
P -2.3056899883 0.00446542 -0.0862035702
S -4.150938851 0.2389454688 -0.696671173
O -2.1337669861 -0.6585432156 1.3459109617
C -3.1563214366 -0.5476575238 2.3550884248
C -3.1168230141 0.7948599302 3.0582113745
O -1.4372534996 -1.0344866363 -0.927452191
C -1.7446878508 -1.317753185 -2.3047983074
C -1.461786433 -0.1365620755 -3.2110680051
H 1.2814051116 -3.9607653846 -1.5221887096
H 1.8162893452 -3.6033448516 0.1274005109
H 0.6195594773 -2.5665057151 -0.655174005
H 2.320959584 -1.8064331234 -2.3040365092
H 3.524391035 -2.9134132077 -1.5838190219
H 3.9694704995 -0.6374590597 1.7960702181
H 5.1507258057 0.6766933792 1.5527062855
H 2.5383782435 0.8661109262 3.1470495104
H 4.1793777557 0.8808809058 3.8049675286
H 3.6167445103 2.2303200487 2.8092325155
H 0.9173243409 2.0694595895 1.1050416179
H -0.3359800387 1.4228372369 2.2138867128
H -4.130986916 -0.7009807762 1.8808189211
H -2.9419648345 -1.3694113269 3.0391712395
H -3.2575355886 1.5965700588 2.3333993127
H -3.9205162623 0.8380835232 3.786520602
H -2.1684875339 0.9334339795 3.5701963733
H -1.1109350323 -2.1714364272 -2.5489086659
H -2.7988484113 -1.6044635398 -2.3716068616
H -0.4309882319 0.1949473812 -3.1056531868
H -1.6416108128 -0.4219200507 -4.2423357824
H -2.1192847426 0.6943080319 -2.9546173691
*
