! pbe def2-sv(p) def2/J RI DEFGRID1 loosescf d4 GCP(DFT/SV(P)) printgap
%output
    printlevel normal
end
* xyz 0 1
C 5.4259495068 -2.0172967063 -0.4400993694
C 4.2778028644 -2.3879304492 0.4850452833
O 3.0149202155 -2.3102740408 -0.2076508461
C 2.3942612292 -1.1542515654 -0.2582742705
O 2.8001128834 -0.1258565821 0.2475354378
C 1.0788158001 -1.2525602639 -0.9951593573
C 0.5777977755 0.1427094249 -1.342657077
H 1.0722036557 0.5486946389 -2.2260578784
C 0.7389683119 1.1138815021 -0.1896647551
O 0.2018884046 0.9317139796 0.8871004431
O 1.3890951342 2.1915998088 -0.5381761744
C 1.5233829897 3.250248666 0.4330661376
C 0.3203816334 4.1782656125 0.3740782612
S -1.2087580425 0.1654489501 -1.723232192
P -2.1152031357 -0.1529149478 0.1562467248
S -1.5401208428 -1.5852961715 1.3795042459
O -2.3888800407 1.3064919974 0.7322230998
C -2.4993990335 1.5487540009 2.142280992
O -3.6072880618 -0.4371291524 -0.3662348721
C -3.9854148324 -1.6990445532 -0.9244370152
H 5.3389468332 -0.9772302098 -0.7461021872
H 6.3657725767 -2.1525907003 0.0847732323
H 5.4133422908 -2.6503345021 -1.3228196252
H 4.2429508679 -1.7203878221 1.3506404762
H 4.3444340073 -3.4266403306 0.8084799975
H 0.3836556189 -1.7507839349 -0.3088838864
H 1.1802832481 -1.8746233879 -1.8825967222
H 1.6292255226 2.7982077284 1.4228344889
H 2.4425372289 3.7627268346 0.1505010992
H -0.5889756393 3.6245131005 0.5997284381
H 0.44208873 4.9718501541 1.1036086609
H 0.2298470622 4.6104699599 -0.618552851
H -1.5722011089 1.2582837787 2.6375336039
H -3.3351205028 0.9876416856 2.5587723369
H -2.6690885555 2.6182095976 2.2385714333
H -3.5813602399 -2.5113417042 -0.3169859957
H -3.6171864924 -1.7774898904 -1.9467464008
H -5.072096506 -1.7151130686 -0.9060781754
*
