  34
        -44.01120409
 C          3.4046030743       -0.6863101616        0.1045281390
 C          2.3784051065        0.3689749587       -0.1845776466
 C          1.4806079350        0.2172736589       -1.1507285847
 C          0.4401281918        1.2104963521       -1.5684081623
 C         -0.9748055399        0.6188884460       -1.5678975473
 C         -1.5592755176        0.4274136192       -0.1576455601
 C         -2.9909488157       -0.1196763696       -0.2429729263
 C         -1.5947941327        1.7474741876        0.5722317277
 C         -1.1705801670        1.9589532672        1.8032673941
 O         -0.7402073009       -0.4643335293        0.6378304088
 C         -0.5068983107       -1.7159277781        0.2910100429
 O         -0.9358758418       -2.2649272137       -0.7049596885
 C          0.3504610597       -2.4033866272        1.3175256500
 C          2.4654402342        1.5991883650        0.6764957067
 H          3.2741943375       -1.5503374822       -0.5422260747
 H          3.3357210743       -1.0096476451        1.1421274164
 H          4.4045171281       -0.2822621017       -0.0510175106
 H          1.4764758248       -0.7005931221       -1.7290039518
 H          0.4676271785        2.0908924535       -0.9274692967
 H          0.6654532848        1.5275363770       -2.5915337134
 H         -0.9710183270       -0.3444585925       -2.0814404786
 H         -1.6463471747        1.2871123034       -2.1085898627
 H         -3.3754932895       -0.2926330983        0.7597697850
 H         -3.6287359329        0.5985412209       -0.7484251740
 H         -3.0026035454       -1.0565443685       -0.7948435798
 H         -2.0382544080        2.5441997550       -0.0075909160
 H         -1.2443122937        2.9289346259        2.2632015098
 H         -0.7346575116        1.1708260719        2.3921056990
 H         -0.2857332500       -3.0462269228        1.9219018807
 H          0.8329723276       -1.6669905192        1.9499709385
 H          1.0843245657       -3.0260494985        0.8151769035
 H          1.4900926698        1.8531352038        1.0876350106
 H          3.1576106006        1.4370193063        1.4979729999
 H          2.8193865494        2.4494761166        0.0950389001
