! r2scan-3c def2/J RI DEFGRID2 scfconv6 printgap
%output
    printlevel normal
end
%cpcm
    smd true
    smdsolvent "water"
end
* xyz 0 1
C -0.6651711849 -2.1761696119 -3.9909e-06
C 0.2171880088 -0.969358881 -1.883e-06
C 1.6024910685 -1.0831346234 4.9383e-06
C 2.4186466999 0.034276064 3.6989e-06
C 1.8601567606 1.3005976719 -9.755e-07
C 0.4832831116 1.444765129 -4.3979e-06
C -0.316006567 0.3159894886 -5.6536e-06
Cl -2.0497963355 0.5254318439 2.8667e-06
H -1.3089347543 -2.1712171932 0.8783273841
H -1.3090727053 -2.1711055968 -0.8782319331
H -0.0723281074 -3.0855676628 -0.0001051114
H 2.0426982258 -2.0686287485 2.1212e-06
H 3.4908571757 -0.0839071507 1.45644e-05
H 2.4883038431 2.1770851745 -2.19765e-05
H 0.0300210489 2.4233648622 1.25878e-05
*
