! pbe def2-sv(p) def2/J RI DEFGRID1 loosescf d4 GCP(DFT/SV(P)) printgap
%output
    printlevel normal
end
* xyz 0 1
C 1.0541783707 -2.2537033072 1.7548940019
C 2.1322161031 -2.2269442956 0.6884404946
O 2.8389711406 -0.9755103823 0.7263832951
P 2.723811982 0.1436677575 -0.4014070553
S 2.9204122853 -0.5431549177 -2.2246781397
O 3.8903656094 1.1194790423 -0.0090179553
C 3.8786843384 2.0904438349 1.0677063397
C 3.5415000702 1.4756983072 2.4082347522
S 0.9374767537 1.263633819 -0.0352808444
C -0.0332858911 0.6795446866 -1.4393903252
S -0.8281262051 -0.9245559746 -1.1415035924
P -2.4131843934 -0.1593994582 0.0192445024
S -3.3144089916 1.4540459081 -0.6521667761
O -1.6847161758 -0.04125376 1.4197216377
C -2.2330319558 0.7309972815 2.5147864581
C -1.6024526643 2.1084396545 2.5606895702
O -3.3843208168 -1.3906744531 0.2790144374
C -4.4770534098 -1.7131825211 -0.5975404742
C -3.9937109435 -2.2286519998 -1.9378045934
H 0.5660412837 -3.2228401616 1.7406294563
H 1.4958072387 -2.0864242599 2.7331121281
H 0.3081695978 -1.4846039897 1.5692437746
H 1.7131097709 -2.3799619461 -0.3120237411
H 2.8896029772 -2.9908357383 0.8768710541
H 4.8934821623 2.4905210666 1.049608975
H 3.1644957517 2.8756850393 0.8072394619
H 3.6381675849 2.2330347838 3.1800519738
H 2.5187159801 1.1041665814 2.402045156
H 4.2149604425 0.650608744 2.6244107326
H 0.6248782576 0.5479517013 -2.2994993419
H -0.8022255398 1.4279664939 -1.633227379
H -3.3180996687 0.7991170509 2.400287254
H -1.9936295726 0.1499561239 3.4064860052
H -1.8688576501 2.6740580665 1.67045399
H -1.9615118568 2.6375503503 3.4373910289
H -0.5203315811 2.0243762766 2.6036996884
H -5.0371223026 -2.4729763109 -0.0508739175
H -5.0929282113 -0.8174646136 -0.728744346
H -3.2973307737 -3.0515786645 -1.7972218041
H -4.8430943479 -2.5697527823 -2.5209146229
H -3.4881663924 -1.432828636 -2.4837795765
*
