! pbe def2-sv(p) def2/J RI DEFGRID1 loosescf d4 GCP(DFT/SV(P)) printgap
%output
    printlevel normal
end
* xyz 0 1
C 2.728916582 1.4680903107 -2.0541243199
C 2.5188234387 -0.0221955383 -2.2113353028
O 1.6894817651 -0.5774649573 -1.164117829
P 1.9537744051 -0.4173009874 0.3836346046
S 1.2091437611 1.1508145182 1.3088375592
O 3.5281449712 -0.5945897534 0.4710779083
C 4.2459344138 -0.4678723472 1.7166493462
C 4.8482563814 0.9174322612 1.8478149113
S 1.2102269435 -2.2445047804 1.1375035588
C -0.4791631998 -1.7259236606 1.5313118411
S -1.6065115708 -1.783754746 0.1033233442
P -2.0212387233 0.2477850648 -0.3418262252
S -0.9369601404 1.2886339204 -1.6042692032
O -2.1635677523 0.8025125788 1.1328801048
C -2.1441394786 2.2135970997 1.430310149
C -3.3610079489 2.9231165615 0.8780247009
O -3.5419960995 0.1505304882 -0.8082372309
C -3.9112789374 -0.0307186275 -2.1824333794
C -3.5420786289 -1.4122058032 -2.6835673822
H 3.2463409306 1.6769069998 -1.1182402825
H 3.3240682247 1.8388157738 -2.8824738651
H 1.769287171 1.9818208891 -2.0435423811
H 3.4698282508 -0.5587777394 -2.2028877366
H 1.9610625177 -0.2508662703 -3.1207776684
H 3.5682818129 -0.680260892 2.5475822143
H 5.018284236 -1.2373607666 1.6697177774
H 5.4918387385 1.1293369656 0.9984026041
H 4.0600774986 1.6664933148 1.8906519357
H 5.4316995949 0.9676327082 2.7613366166
H -0.4596465332 -0.7139471166 1.9387628183
H -0.8583030527 -2.4405946407 2.2565063533
H -2.1095713289 2.2468289831 2.5201518984
H -1.2204354525 2.6408926537 1.0260764897
H -4.2681061531 2.4294372177 1.2167260726
H -3.3579313646 3.9540355506 1.2175827055
H -3.3358118869 2.908654523 -0.2109266196
H -4.9901350177 0.1289489431 -2.1911218285
H -3.4137666624 0.7407052048 -2.7804853402
H -3.8988624978 -1.5377675917 -3.7007042469
H -2.4578377164 -1.529634833 -2.6702775086
H -3.9800799321 -2.1759201049 -2.0461684757
*
