! pbe def2-sv(p) def2/J RI DEFGRID1 loosescf d4 GCP(DFT/SV(P)) printgap
%output
    printlevel normal
end
* xyz 0 1
C 5.3313402564 -2.2894836779 -0.5776792202
C 4.6061022274 -1.1943832892 0.1882827926
O 3.1788576366 -1.386241365 0.138858706
C 2.5185106725 -0.9051790019 -0.8919085887
O 3.0169548566 -0.2873842999 -1.8073340449
C 1.0375435202 -1.2310869451 -0.8010999969
C 0.2332770912 -0.0558324457 -1.3403904078
H 0.6398349082 0.2332863518 -2.3171152545
C 0.3017185346 1.1699942891 -0.4498763862
O -0.578803195 2.0067605532 -0.4044856911
O 1.4269478261 1.2337973999 0.2107478082
C 1.6205007579 2.3477295652 1.1082534595
C 3.0487856767 2.2981713723 1.6102181413
S -1.5165009715 -0.4637685287 -1.6640521387
P -2.3601116052 -0.0498152014 0.2077234769
S -1.2281679586 -0.1253647177 1.8172445142
O -3.1994009297 1.2697080819 -0.046522876
C -3.904338249 1.9243468046 1.0204491478
O -3.5633040637 -1.1057387114 0.2873552095
C -3.337578741 -2.4825056654 0.6107043111
H 5.0814746437 -2.2345374505 -1.6347026063
H 6.4022096968 -2.15907091 -0.4618789878
H 5.0454700808 -3.2654757195 -0.1955375888
H 4.8390697159 -0.2108197189 -0.2287679734
H 4.8484311923 -1.2257852983 1.2505043592
H 0.7835886499 -1.4557831251 0.2353408717
H 0.8425793259 -2.1094116488 -1.4191412192
H 1.4027006917 3.2713943914 0.5637836651
H 0.8976159608 2.2416979116 1.9238267601
H 3.7393194767 2.3752482203 0.7752225976
H 3.21590078 3.1248486676 2.2922237406
H 3.2237790452 1.3610968118 2.130256896
H -4.8298876874 1.3890054142 1.2293597546
H -4.1074709076 2.9298518016 0.6610259077
H -3.2832168144 1.9602908003 1.9176656998
H -2.9194196653 -3.0003413944 -0.2515307846
H -4.3133199392 -2.8879319046 0.8655520113
H -2.6581823715 -2.5594736901 1.4615222207
*
