! r2scan-3c def2/J RI DEFGRID2 scfconv6 printgap
%output
    printlevel normal
end
* xyz 0 1
C 5.4336847631 -0.0022044862 -0.9973713589
C 4.5152438422 -0.8453265575 -0.1336107798
O 3.52046477 -0.0307829338 0.5155052095
P 2.0807142012 0.2276905689 -0.1105587146
S 2.0376582594 0.9700513584 -1.927884044
O 1.4377418388 1.0957356003 1.0472153185
C 1.4690691535 2.5386048289 1.0147677175
C 2.8810886925 3.0722827137 1.1138249975
S 1.1666076568 -1.6621348426 0.1455360518
C 0.1412062536 -1.7519798 -1.3624589599
S -1.5910110231 -2.1445041097 -1.0143294769
P -2.0888854892 -0.42947476 0.0974753611
S -1.3617582476 1.2799234755 -0.5498228272
O -1.6881674175 -0.8847000122 1.5557435967
C -1.4689698836 0.0343284943 2.6456269216
C -2.7151021921 0.8279557172 2.9739424249
O -3.6726860689 -0.4876495466 0.158907227
C -4.4929347224 -0.0829431953 -0.9559630818
C -5.8934561272 0.1700614123 -0.4357465276
H 4.870202097 0.466790301 -1.8009832257
H 5.9029979854 0.7730662611 -0.3982215274
H 6.2011567317 -0.6371944756 -1.427822079
H 5.0612572669 -1.3142006351 0.6871462596
H 4.0175876896 -1.6179447831 -0.7271703606
H 0.9825097154 2.8727990817 0.0921658513
H 0.8606807061 2.8340537333 1.8709413364
H 3.445573968 2.7844467114 0.2276174281
H 2.8516614656 4.1554305341 1.1780687547
H 3.373847199 2.6660125915 1.9932959882
H 0.5093950005 -2.5671765328 -1.9800252971
H 0.2143464042 -0.7960977167 -1.8897244293
H -1.1674867748 -0.6145078301 3.4692209981
H -0.6397791883 0.6955800866 2.376103733
H -3.5465727939 0.1548697222 3.1660621776
H -2.5332637402 1.4413355951 3.8509575933
H -2.971429226 1.4742426557 2.1346592478
H -4.0585444133 0.8193807624 -1.3998531242
H -4.4806803091 -0.8868844788 -1.6966292639
H -6.2769376703 -0.7272028245 0.0409653968
H -5.8850094962 0.9788928474 0.2893320129
H -6.5373504662 0.4403938027 -1.2661128502
*
