! r2scan-3c def2/J RI DEFGRID2 scfconv6 printgap
%output
    printlevel normal
end
%cpcm
    smd true
    smdsolvent "water"
end
* xyz 0 1
C 5.8085647719 -1.5773471144 -1.3647906674
C 4.5130975504 -0.8054463829 -1.5103909879
O 3.7905946099 -0.9151714926 -0.2655534914
P 2.5734663297 0.0512057594 0.0583556282
S 2.937432792 1.9668443335 -0.0788526349
O 2.1582323887 -0.3663608315 1.5160739815
C 1.8489141428 -1.727244633 1.9091517755
C 3.0629171213 -2.401753004 2.5132693292
S 1.048404442 -0.6761042776 -1.2470604701
C -0.037649892 0.7575741526 -1.08686687
S -0.8490034808 0.8532155573 0.5342594141
P -2.8441339141 0.2931701961 -0.0039604179
S -3.1977135606 0.1888221542 -1.9337037874
O -3.7266418777 1.321273836 0.8118092077
C -3.7520819961 2.7157925144 0.4457538917
C -4.8833777236 3.3723973021 1.2103995509
O -3.2331869807 -0.9748134172 0.8514416802
C -3.1361522587 -2.3136067696 0.3300806815
C -1.701851491 -2.8013131693 0.3001404185
H 5.5986084202 -2.6204953735 -1.147381902
H 6.3678753584 -1.5099786383 -2.2920502363
H 6.403260484 -1.1597668432 -0.5571896765
H 3.8867782281 -1.21912037 -2.3052609072
H 4.6968582571 0.2546607583 -1.713375097
H 1.0460074015 -1.6178788703 2.6408888601
H 1.4862643682 -2.2749903113 1.0345936824
H 2.7838912097 -3.3932655986 2.8559275973
H 3.8533058437 -2.485930087 1.7725024605
H 3.4315776008 -1.8212204091 3.3544393527
H -0.8005965071 0.6773740593 -1.8651633984
H 0.5632177595 1.6597206143 -1.2047905814
H -2.7858549443 3.1610171525 0.703047594
H -3.9034997708 2.7923521431 -0.63664753
H -4.917389962 4.4278911334 0.9612645324
H -5.8291243422 2.9084581318 0.9457744675
H -4.7223296215 3.2578175804 2.2782476843
H -3.7477516324 -2.9047889504 1.0131440795
H -3.5747861546 -2.3341162128 -0.6729401788
H -1.1269298221 -2.2322483214 -0.4300264438
H -1.2476688293 -2.6852791414 1.2809132502
H -1.6840432434 -3.8486897845 0.0167871202
*
