! pbe def2-sv(p) def2/J RI DEFGRID1 loosescf d4 GCP(DFT/SV(P)) printgap
%output
    printlevel normal
end
* xyz 0 1
C 4.0572519157 -3.3939077369 0.6701662585
C 2.9827933372 -2.3456386774 0.8770312994
O 2.8334367493 -1.615499083 -0.3590308432
C 1.8076101217 -0.8191441749 -0.4915348162
O 0.9779296026 -0.6264181698 0.3858728153
C 1.7299063092 -0.1549184196 -1.8397914249
C 0.6196733932 0.8817440702 -1.8327876543
H 0.5545867981 1.3855818915 -2.8018899095
C 0.8284836046 1.9522712522 -0.7703121508
O 1.8588067504 2.0700574682 -0.1457383013
O -0.2054012116 2.7589834413 -0.689047151
C -0.0967886726 3.9495494674 0.1192144824
C -0.3663506045 3.6845252268 1.5900094296
S -1.0535711935 0.1411432512 -1.709411296
P -1.4528533756 -0.7023571086 0.1958188573
S -1.0679837798 -2.5601050161 0.6931647559
O -1.2717489088 0.443842205 1.3078564201
C -0.5460678083 0.2543215098 2.5211909379
O -3.0508061339 -0.7030792846 0.0193738986
C -3.843441404 0.474553864 -0.2029904632
H 3.7580859875 -4.084311304 -0.1125124041
H 4.9902289242 -2.9177542585 0.3845221644
H 4.2006755561 -3.9434955139 1.5942391337
H 3.2578609012 -1.6319119363 1.6594732928
H 2.0165672606 -2.7918574271 1.1345013794
H 1.5391236679 -0.9142481929 -2.5999235883
H 2.6927549212 0.3139165579 -2.0495914029
H 0.9070299809 4.3624141186 -0.0163719063
H -0.8461519203 4.6167388906 -0.3071160541
H -1.3152205347 3.1692867035 1.7119835406
H 0.4248922532 3.0712194569 2.013671265
H -0.4007370491 4.6304388063 2.1205069087
H -1.0940679202 0.7908662686 3.2925630496
H 0.4605473108 0.6540196953 2.4057478692
H -0.4845317922 -0.8080172384 2.7634649638
H -3.4149184447 1.3275838573 0.3206381707
H -4.8287241675 0.2398550843 0.1931009032
H -3.8984522771 0.6774795772 -1.2715008728
*
