! r2scan-3c def2/J RI DEFGRID2 scfconv6 printgap
%output
    printlevel normal
end
%cpcm
    smd true
    smdsolvent "water"
end
* xyz 0 1
C 1.3823070925 0.5384972065 -2.7592951471
C 2.4288736309 0.8805648105 -1.7172857198
O 2.7967138199 -0.2856572046 -0.9594212659
P 2.2206525986 -0.6417639231 0.4767587114
S 2.3197059534 0.7873679403 1.8242752088
O 3.0521795942 -1.9408437356 0.8325030509
C 4.3121389043 -1.8868719153 1.5312516566
C 5.4039793515 -1.2730454308 0.6806561428
S 0.3551207603 -1.5543150884 0.1216368539
C -0.4993918792 -1.0687545399 1.6636494199
S -2.2577765598 -0.7449223499 1.3949342087
P -2.0623503642 0.7556202448 -0.0859209549
S -0.5959652812 2.0405560943 0.0339357052
O -3.5312157421 1.3510460926 0.1058771169
C -3.8615865032 2.6954163629 -0.2917278052
C -3.9236528929 2.8331893531 -1.7999792013
O -2.0416218605 0.0202506064 -1.4954112469
C -3.058215576 -0.9381168864 -1.878258267
C -2.4824784973 -2.3396046358 -1.901190291
H 0.4382312002 0.279504896 -2.2839611954
H 1.2246215407 1.4023520743 -3.39704218
H 1.7185551855 -0.3018701052 -3.3598913588
H 2.0693901176 1.659340393 -1.0363295162
H 3.3578562343 1.2104658264 -2.1865369466
H 4.1713559097 -1.311956007 2.4522071881
H 4.5210997917 -2.9303326247 1.7701652377
H 6.3529584587 -1.3481172978 1.2023048003
H 5.4709239243 -1.788617506 -0.2736298537
H 5.1821595645 -0.2222811319 0.498164029
H -0.0121288211 -0.1705623311 2.0543184557
H -0.4486960144 -1.8857318847 2.3791794693
H -4.8306299959 2.8786213782 0.1745537759
H -3.1139761506 3.376784253 0.1266971196
H -2.9415424405 2.6322105479 -2.2274180189
H -4.6430613836 2.1320182865 -2.2148363362
H -4.2194576209 3.8456896489 -2.0562430651
H -3.8976273703 -0.8656525554 -1.1808851194
H -3.3763070936 -0.6262802229 -2.8746301777
H -1.6116960799 -2.375426835 -2.5493161746
H -2.1791793175 -2.6464779449 -0.9030868907
H -3.2371447648 -3.0256749426 -2.2718870999
*
