! r2scan-3c def2/J RI DEFGRID2 scfconv6 printgap
%output
    printlevel normal
end
* xyz 0 1
C 0.8678403553 1.3802370553 -0.5933225766
C 1.5893702245 0.1486342521 -0.0249921378
H 2.5539978701 0.0523929099 -0.5340029854
C 0.7599794115 -1.118632162 -0.3158393458
H 1.1907053558 -1.9410198071 0.2712208363
C -0.6945419056 -0.909693281 0.1471896305
H -1.3207664043 -1.745559394 -0.2017774139
C -1.2499270672 0.3829400828 -0.4745190966
H -1.251325644 0.2728651224 -1.5789877002
O -0.4600911928 1.4931350711 -0.1206448076
O -2.5261558342 0.5798841139 0.0230083756
O -0.713874928 -0.8344915713 1.5497220391
O 0.824688392 -1.3734412778 -1.6967163266
O 1.8791918368 0.2772219119 1.3411060149
H 0.8676287505 1.3120176339 -1.6889702308
H 1.3700438121 2.2908439814 -0.2679337823
H -2.8049546764 1.4914213846 -0.1547830534
H -1.5890355465 -0.5127129971 1.8204694098
H 0.5846430299 -2.2934717848 -1.8771180723
H 1.0465659056 0.2027037588 1.8393577353
*
