! wb97x-v def2-tzvp def2/J RIJCOSX DEFGRID2 scfconv7 GCP(DFT/TZ) printgap
%output
    printlevel normal
end
* xyz 0 1
C -1.6413405346042873 -0.4815723619132601 7.922482045578357e-07
C -0.6046375703535664 0.650211066930921 6.743739198140432e-05
C 0.7515761754233764 0.14019797536590303 0.000668681606581408
N 1.8279824819223358 -0.28832518925574285 -0.0006380318158314559
H -1.5323610849860383 -1.1077324093579322 0.8886198616670152
H -2.643016904420191 -0.04594084067176506 -0.00019673163354818452
H -1.532091561964401 -1.107899963196086 -0.8884647937123141
H -0.7207713769240454 1.2888240927610504 0.8824256848881743
H -0.7204087319840099 1.2886369198858145 -0.8824723863595045
*
