! pbe def2-sv(p) def2/J RI DEFGRID1 loosescf d4 GCP(DFT/SV(P)) printgap
%output
    printlevel normal
end
* xyz 0 1
C 5.6418041019 -1.395985809 -1.1302056069
C 4.8054657251 -0.1469036614 -0.9429894932
O 3.5913571024 -0.5224583449 -0.2546380284
P 2.2524389603 0.3060566143 -0.4090489349
S 1.7812195773 0.7642755196 -2.2623752534
O 2.5696821098 1.5527744262 0.5294964809
C 1.7254118908 2.7090727247 0.6599441506
C 0.8805327264 2.6166859549 1.9151669396
S 0.9868856864 -0.9648570791 0.6770828151
C 0.0022037459 -1.6486483436 -0.7079885113
S -1.7071002522 -1.9515610615 -0.2289247965
P -2.2359156226 0.0474135067 0.2980444473
S -1.4453039479 1.4925480009 -0.7574702855
O -1.9045731379 0.1934110981 1.8317874483
C -2.4067947579 -0.7262204774 2.8393684093
C -1.2602076132 -1.5133837079 3.4401122759
O -3.8266234829 0.0010414171 0.319451744
C -4.6382378372 0.2545173526 -0.8408304559
C -4.4379084401 -0.7820131542 -1.9273590064
H 5.8479367836 -1.8500596239 -0.1654163588
H 5.1097878196 -2.1119863569 -1.7502770283
H 6.576872811 -1.1294696252 -1.6119693631
H 4.5360354462 0.3050625498 -1.9039228348
H 5.3208433706 0.5952703359 -0.3292038789
H 2.4153962887 3.5537082416 0.7094999911
H 1.0991859133 2.8040233637 -0.2336358438
H 1.5155893484 2.432900625 2.7771793321
H 0.3441784754 3.5505530463 2.0497625284
H 0.1553319338 1.8092205106 1.8303852189
H 0.412323971 -2.611620186 -1.0014771815
H 0.0379197635 -0.9331092533 -1.5345918123
H -2.8890859567 -0.0914711549 3.5840149412
H -3.1475865102 -1.3858145714 2.3828325313
H -0.5084274677 -0.8370942381 3.8365360217
H -1.6422143435 -2.1372400114 4.2416334956
H -0.7916238513 -2.1432177824 2.6874892169
H -5.6568317958 0.2373730581 -0.450431558
H -4.4002256109 1.2549311011 -1.2152084479
H -4.5583487663 -1.7841211569 -1.5236670472
H -5.1666863487 -0.619020688 -2.7149187075
H -3.4386866041 -0.690489711 -2.3509513705
*
