  35
        -49.05857771
 C         -1.9234396129        3.7101947887        0.9821919953
 C         -1.5392579509        3.1727859042       -0.3937849715
 N         -0.1536652958        2.7642348265       -0.4498956945
 C          0.2619046267        1.5096195233       -0.2595377209
 N         -0.6410103387        0.5302305857       -0.1892026886
 C         -0.1532786104       -0.7003333493       -0.0342202237
 N          1.1678309017       -0.9858581153        0.0462479238
 C          1.9599134289        0.0634921875       -0.0365507410
 N          1.5961726948        1.3255817710       -0.1844238402
 S          3.6839602316       -0.2048672844        0.0615731788
 C          3.7503112739       -2.0129638982        0.2588388516
 N         -0.9679278110       -1.7502377054        0.0586983612
 C         -2.4288920561       -1.7472168152       -0.0014654487
 C         -2.8856051142       -3.1949500552        0.1708104134
 C         -2.9876335987       -0.8799449549        1.1295423976
 C         -2.8841688157       -1.2086030847       -1.3603722674
 H         -1.7642933242        2.9463027250        1.7396130183
 H         -1.3227894450        4.5802213425        1.2345997641
 H         -2.9711372212        3.9939417471        0.9858019465
 H         -1.6960064772        3.9402086996       -1.1545487695
 H         -2.1403782765        2.2959110214       -0.6360925223
 H          0.5619285292        3.4731649135       -0.4024144535
 H          3.2204297915       -2.2861563666        1.1638836044
 H          4.8021062854       -2.2637868266        0.3294516818
 H          3.2940045452       -2.4767347862       -0.6079075023
 H         -0.5012141660       -2.6373117576        0.1698708963
 H         -2.5563178540       -3.5873927565        1.1296171082
 H         -3.9694768214       -3.2441429292        0.1330369736
 H         -2.4850156326       -3.8189586606       -0.6241561104
 H         -2.6233808135        0.1374868577        1.0237384417
 H         -2.6688148610       -1.2667140040        2.0944175834
 H         -4.0723702074       -0.8748394352        1.0925360433
 H         -2.5091546290       -0.1987144657       -1.4975903184
 H         -2.5006341684       -1.8341351375       -2.1627384654
 H         -3.9682936243       -1.1949413602       -1.4112537618
