  35
        -49.05857771
 C         -1.9234396129        3.7101947887        0.9821919953
 C         -1.5392579509        3.1727859042       -0.3937849715
 N         -0.1536652958        2.7642348265       -0.4498956945
 C          0.2619046267        1.5096195233       -0.2595377209
 N         -0.6410103387        0.5302305857       -0.1892026886
 C         -0.1532786104       -0.7003333493       -0.0342202237
 N          1.1678309017       -0.9858581153        0.0462479238
 C          1.9599134289        0.0634921875       -0.0365507410
 N          1.5961726948        1.3255817710       -0.1844238402
 S          3.6839602316       -0.2048672844        0.0615731788
 C          3.7503112739       -2.0129638982        0.2588388516
 N         -0.9679278110       -1.7502377054        0.0586983612
 C         -2.4288920561       -1.7472168152       -0.0014654487
 C         -2.8856051142       -3.1949500552        0.1708104134
 C         -2.9876335987       -0.8799449549        1.1295423976
 C         -2.8841688157       -1.2086030847       -1.3603722674
 H         -1.7642933242        2.9463027250        1.7396130183
 H         -1.3227894450        4.5802213425        1.2345997641
 H         -2.9711372212        3.9939417471        0.9858019465
 H         -1.6960064772        3.9402086996       -1.1545487695
 H         -2.1403782765        2.2959110214       -0.6360925223
 H          0.5619285292        3.4731649135       -0.4024144535
 H          3.2204297915       -2.2861563666        1.1638836044
 H          4.8021062854       -2.2637868266        0.3294516818
 H          3.2940045452       -2.4767347862       -0.6079075023
 H         -0.5012141660       -2.6373117576        0.1698708963
 H         -2.5563178540       -3.5873927565        1.1296171082
 H         -3.9694768214       -3.2441429292        0.1330369736
 H         -2.4850156326       -3.8189586606       -0.6241561104
 H         -2.6233808135        0.1374868577        1.0237384417
 H         -2.6688148610       -1.2667140040        2.0944175834
 H         -4.0723702074       -0.8748394352        1.0925360433
 H         -2.5091546290       -0.1987144657       -1.4975903184
 H         -2.5006341684       -1.8341351375       -2.1627384654
 H         -3.9682936243       -1.1949413602       -1.4112537618
  35
        -49.05856894
 C         -1.5646108801        3.7822776724        0.5358268004
 C         -1.1993848614        3.0644368164       -0.7607387260
 N          0.1286820931        2.4952950362       -0.7109291858
 C          0.3828212577        1.2298167881       -0.3682028082
 N         -0.6308359743        0.3768110051       -0.2303492784
 C         -0.2979224171       -0.8779278528        0.0798515775
 N          0.9759101727       -1.3021263972        0.2452005009
 C          1.8906402959       -0.3660857555        0.0801504624
 N          1.6842714607        0.9030958285       -0.2179020667
 S          3.5430894883       -0.8949145644        0.2898818723
 C          4.4532260664        0.6513102892       -0.0147306865
 N         -1.2366469300       -1.8066489452        0.2544010218
 C         -2.6840820614       -1.6405145593        0.1317864934
 C         -3.0316816784       -1.2174143677       -1.2980641499
 C         -3.3170273828       -2.9943601501        0.4486958026
 C         -3.1669147578       -0.5863503637        1.1314714766
 H         -1.5242502163        3.0877407519        1.3716880177
 H         -0.8749594553        4.5999454134        0.7288837916
 H         -2.5709217095        4.1824284208        0.4624364286
 H         -1.2366044992        3.7614662497       -1.6003494653
 H         -1.8922056972        2.2423590837       -0.9427791660
 H          0.9203629772        3.1199983961       -0.7057902787
 H          4.1643875222        1.3815387142        0.7321889271
 H          4.2157792274        1.0065933356       -1.0106556065
 H          5.5031335029        0.3975101573        0.0715838589
 H         -0.8811319815       -2.7229335347        0.4802038449
 H         -4.1044086829       -1.0845879450       -1.3966293454
 H         -2.5340683054       -0.2813241268       -1.5333271486
 H         -2.7023462107       -1.9739691917       -2.0061010642
 H         -2.9708407957       -3.7506385011       -0.2513511845
 H         -4.3974167468       -2.9216072774        0.3704216807
 H         -3.0644377848       -3.3059090249        1.4590994200
 H         -4.2422459144       -0.4631406130        1.0507262602
 H         -2.9207162401       -0.8890529916        2.1463270161
 H         -2.6829542409        0.3630272860        0.9233903326
  35
        -49.05856892
 C         -1.5652831914        3.6196222111       -1.2217673423
 C         -1.2096504913        3.1483903805        0.1857801982
 N          0.1193158328        2.5828397790        0.2498269132
 C          0.3778098653        1.2770234602        0.1429065119
 N         -0.6334758910        0.4102571232        0.1515745191
 C         -0.2960616960       -0.8789196627        0.0763989356
 N          0.9797783702       -1.3223231927        0.0016797356
 C          1.8917674637       -0.3692157747        0.0032837786
 N          1.6810330758        0.9322662678        0.0658136282
 S          3.5469239898       -0.9220336155       -0.0923879596
 C          4.4517549262        0.6566256673       -0.0595328661
 N         -1.2318695920       -1.8266993728        0.0648601499
 C         -2.6806455890       -1.6453712612        0.1421411925
 C         -3.1555310307       -0.7938117553       -1.0381444438
 C         -3.3088101241       -3.0362683410        0.0733870379
 C         -3.0422900141       -0.9684684086        1.4669897184
 H         -0.8746977456        4.3904410856       -1.5540292566
 H         -1.5179124662        2.7856922274       -1.9181730428
 H         -2.5724101376        4.0243576359       -1.2293930304
 H         -1.9031399705        2.3710090096        0.5078219903
 H         -1.2542561558        3.9854072162        0.8854904372
 H          0.9105862672        3.1983128559        0.1397681485
 H          5.5029298424        0.3949193441       -0.0876016069
 H          4.2025504453        1.1835083670        0.8541723904
 H          4.1703964843        1.2405824139       -0.9281227950
 H         -0.8731600864       -2.7676620649        0.0113988451
 H         -2.8994769157       -1.2767427410       -1.9780381954
 H         -4.2317275817       -0.6610177213       -0.9910143854
 H         -2.6747073672        0.1790464694       -1.0033202668
 H         -2.9685681630       -3.6499901015        0.9037202962
 H         -3.0458302276       -3.5273381085       -0.8601304255
 H         -4.3900272579       -2.9537158437        0.1266963942
 H         -2.7166522979       -1.5804127692        2.3046292820
 H         -2.5498435190       -0.0027111728        1.5301947272
 H         -4.1162878705       -0.8250603378        1.5308100076
  35
        -49.05855995
 C         -1.5627662633        3.5884469203        1.4020618681
 C         -1.2198525928        3.1500069378       -0.0190409397
 N          0.1098731334        2.5900326111       -0.1080128101
 C          0.3725192605        1.2813672653       -0.0765931341
 N         -0.6360878287        0.4128532529       -0.1297044512
 C         -0.2939326976       -0.8772509485       -0.1325714537
 N          0.9838320316       -1.3196715256       -0.0930638654
 C          1.8925065266       -0.3649041439       -0.0397254292
 N          1.6771625522        0.9372069803       -0.0233118270
 S          3.5497432618       -0.9166240711        0.0195648251
 C          4.4482927533        0.6642154086        0.0966046876
 N         -1.2263325025       -1.8276685108       -0.1719526547
 C         -2.6768920071       -1.6482850571       -0.2081146177
 C         -3.1303545852       -0.8828662532        1.0379204132
 C         -3.0677233860       -0.8827045766       -1.4750213411
 C         -3.2987891464       -3.0436280321       -0.2238637515
 H         -2.5712629349        3.9889660833        1.4285062109
 H         -1.5053264041        2.7398504170        2.0796332865
 H         -0.8719211454        4.3547280619        1.7440473309
 H         -1.2743452731        4.0028630384       -0.6990117056
 H         -1.9136739484        2.3778182267       -0.3524085699
 H          0.9002568909        3.2016174090        0.0271752281
 H          4.2104321572        1.2457434065       -0.7864683985
 H          5.4999881511        0.4046981005        0.1241224117
 H          4.1516311843        1.1924013454        0.9953165509
 H         -0.8638906371       -2.7687146717       -0.1717697474
 H         -2.6546282867        0.0929615293        1.0604203977
 H         -4.2078607612       -0.7533181878        1.0229386318
 H         -2.8521158747       -1.4278979353        1.9367037623
 H         -2.5760129714        0.0854008669       -1.4832385718
 H         -4.1427952005       -0.7360846521       -1.5041247216
 H         -2.7619049703       -1.4357634824       -2.3596810625
 H         -2.9705048995       -3.5974387002       -1.0998406216
 H         -3.0183108685       -3.5962536824        0.6692853234
 H         -4.3810148554       -2.9626890445       -0.2533332026
  35
        -49.05830966
 C         -1.5828027522        3.6850200421       -1.0057112595
 C         -1.2351620550        3.1285474786        0.3722110425
 N          0.0980477606        2.5701597678        0.4117785142
 C          0.3661558984        1.2751691616        0.2252778805
 N         -0.6392148472        0.4037087908        0.1743855570
 C         -0.2935776155       -0.8758137164        0.0173423079
 N          0.9856674733       -1.3052192709       -0.0806250847
 C          1.8923840642       -0.3503693814       -0.0117496383
 N          1.6716731350        0.9430344844        0.1340786836
 S          3.5453306085       -0.9126155275       -0.1270319229
 C          4.4947605441        0.6403280848       -0.0230139313
 N         -1.2228521912       -1.8263586508       -0.0606332229
 C         -2.6726583841       -1.6606389272        0.0316442992
 C         -3.2918381049       -3.0469781623       -0.1371841794
 C         -3.0352510250       -1.0841916553        1.4029284814
 C         -3.1558345642       -0.7289045118       -1.0826817301
 H         -2.5929964119        4.0820213427       -0.9965996528
 H         -0.8956746437        4.4803473469       -1.2825687114
 H         -1.5230636526        2.8972238655       -1.7529188200
 H         -1.9245293055        2.3269817204        0.6386312510
 H         -1.2921180258        3.9191345307        1.1230536523
 H          0.8835472380        3.1986407178        0.3408370419
 H          4.8456040049        0.8994688476       -1.0156711424
 H          5.3280854523        0.4638419021        0.6465364327
 H          3.8224915233        1.3972972453        0.3644318610
 H         -0.8573668027       -2.7596345464       -0.1723861852
 H         -2.9449464337       -3.7177821454        0.6447525270
 H         -4.3733480043       -2.9758226409       -0.0748100120
 H         -3.0288760259       -3.4662905939       -1.1049857499
 H         -2.7053114520       -1.7542221911        2.1930329923
 H         -4.1097590382       -0.9509584816        1.4787623837
 H         -2.5473415884       -0.1232316370        1.5361115486
 H         -4.2325974063       -0.6063138370       -1.0230242618
 H         -2.6804703219        0.2416756519       -0.9792391103
 H         -2.9001148931       -1.1412096919       -2.0556188107
  35
        -49.05829663
 C         -1.9164929474        3.8073302191        0.5952218412
 C         -1.5284667867        3.1194726390       -0.7108826215
 N         -0.1448385646        2.7006924366       -0.7131180003
 C          0.2631388723        1.4689800663       -0.4006430465
 N         -0.6441673114        0.5043538036       -0.2404571662
 C         -0.1626942616       -0.7066913092        0.0356140825
 N          1.1570550136       -0.9871831398        0.1490123046
 C          1.9556835940        0.0453946179       -0.0302523559
 N          1.5965064357        1.2874749933       -0.3005837494
 S          3.6853308676       -0.1909752006        0.0950130981
 C          3.8123429507       -1.9709336217        0.4715531368
 N         -0.9823514122       -1.7392062561        0.2269509306
 C         -2.4432092933       -1.7358496551        0.1578398091
 C         -2.8879284753       -1.3326490100       -1.2504904592
 C         -2.9073337201       -3.1576152402        0.4698605010
 C         -3.0039687960       -0.7588922368        1.1943393705
 H         -1.3114570051        4.6962371624        0.7539847961
 H         -2.9622089347        4.0962077365        0.5608406945
 H         -1.7668279597        3.1306862332        1.4332281598
 H         -1.6771817017        3.7992868003       -1.5523951107
 H         -2.1329763237        2.2241720197       -0.8587711027
 H          0.5745285987        3.4071407164       -0.7338144689
 H          4.2887871692       -2.0779904731        1.4392420777
 H          4.4079363755       -2.4362048031       -0.3053037469
 H          2.7995664521       -2.3584822410        0.4825450208
 H         -0.5226224052       -2.6146915404        0.4247745448
 H         -2.5070046482       -0.3430938032       -1.4850093385
 H         -2.5032863196       -2.0365029245       -1.9845474821
 H         -3.9716543650       -1.3191375801       -1.3089255116
 H         -2.5852155215       -3.4544468026        1.4648104971
 H         -2.5052815974       -3.8589590430       -0.2570264096
 H         -3.9911701009       -3.2060118531        0.4306630829
 H         -2.6916531877       -1.0493885856        2.1944748927
 H         -2.6351410218        0.2417866505        0.9904989718
 H         -4.0884571415       -0.7538287453        1.1510188109
  35
        -49.05828602
 C         -1.9346192571        3.5214577908        1.3523846985
 C         -1.5380484752        3.1918648509       -0.0843730974
 N         -0.1521345406        2.7931634873       -0.1890589402
 C          0.2612232570        1.5255649541       -0.1181030595
 N         -0.6440764448        0.5462690358       -0.1371219540
 C         -0.1599946617       -0.6940585235       -0.0948218559
 N          1.1607393661       -0.9882497246       -0.0462286094
 C          1.9573405329        0.0612794705       -0.0370069045
 N          1.5952874909        1.3315162233       -0.0651699226
 S          3.6875746252       -0.1918494799        0.0304562064
 C          3.8174801232       -2.0108579603        0.0360207310
 N         -0.9782975954       -1.7452155113       -0.0892263626
 C         -2.4390649582       -1.7307246770       -0.1594266643
 C         -3.0033461461       -0.9491861985        1.0295561605
 C         -2.8808750843       -1.0885543884       -1.4771616383
 C         -2.9022764764       -3.1853864980       -0.0999637479
 H         -1.3358639154        4.3434126988        1.7361820390
 H         -2.9822819775        3.8030049002        1.3886234850
 H         -1.7823999903        2.6534674458        1.9896506126
 H         -1.6862316352        4.0625421153       -0.7257535738
 H         -2.1387650457        2.3616125254       -0.4572632277
 H          0.5638918104        3.4929103524       -0.0685716971
 H          2.8122725615       -2.3950783042        0.1687698239
 H          4.4650018477       -2.2914358451        0.8583396575
 H          4.2380849920       -2.3274442098       -0.9117675533
 H         -0.5171440161       -2.6417928906       -0.0673788224
 H         -4.0879202651       -0.9434030221        0.9882323153
 H         -2.6878084380       -1.4050916385        1.9648529579
 H         -2.6406692927        0.0737304241        1.0000321867
 H         -3.9644521534       -1.0660465384       -1.5355610658
 H         -2.4931893096       -1.6530806618       -2.3216981481
 H         -2.5009328794       -0.0727611113       -1.5342990559
 H         -3.9861230116       -3.2267716112       -0.1460790178
 H         -2.5007064372       -3.7491821308       -0.9382528353
 H         -2.5791648479       -3.6508945071        0.8277481004
  35
        -49.05829719
 C         -1.9177929324        3.7183770787        0.9799007340
 C         -1.5359952140        3.1715969373       -0.3930274798
 N         -0.1518925346        2.7576440115       -0.4462316285
 C          0.2594205459        1.5020378362       -0.2573650399
 N         -0.6458932094        0.5247853521       -0.1881989138
 C         -0.1615373331       -0.7066596289       -0.0344703464
 N          1.1590770509       -0.9944530149        0.0457358112
 C          1.9555048348        0.0521111383       -0.0351613360
 N          1.5934234215        1.3140230239       -0.1815416333
 S          3.6859534214       -0.1921771234        0.0587129713
 C          3.8168002017       -1.9998208716        0.2622845355
 N         -0.9789352547       -1.7545110505        0.0570682809
 C         -2.4402099230       -1.7465877655       -0.0025228832
 C         -2.9011322047       -3.1930934580        0.1686966551
 C         -2.9955738298       -0.8787997150        1.1296277678
 C         -2.8941250439       -1.2055056109       -1.3608083213
 H         -1.3138707410        4.5875940648        1.2271623115
 H         -2.9643593552        4.0062187863        0.9819755416
 H         -1.7615303643        2.9584501005        1.7418479878
 H         -1.6896544748        3.9353551506       -1.1580919715
 H         -2.1403957687        2.2957369223       -0.6305842773
 H          0.5663309593        3.4640639880       -0.4002710467
 H          4.2838151941       -2.1991757506        1.2199394140
 H          4.4223849441       -2.3849298747       -0.5498862373
 H          2.8056896263       -2.3900989755        0.2249987572
 H         -0.5173317058       -2.6442774479        0.1675565666
 H         -3.9851066903       -3.2391497158        0.1302689249
 H         -2.5019842861       -3.8178612251       -0.6264399744
 H         -2.5735951201       -3.5870608010        1.1275083427
 H         -2.6284123702        0.1376450351        1.0247005422
 H         -2.6774413971       -1.2675006540        2.0939489433
 H         -4.0803019151       -0.8705195443        1.0931509364
 H         -2.5146529333       -0.1973160844       -1.4980900206
 H         -2.5143056560       -1.8325982078       -2.1637133742
 H         -3.9782159504       -1.1868781831       -1.4105716949
  35
        -49.05737453
 C         -1.8078272722        4.5581216305       -0.3450020950
 C         -1.6280324106        3.0544594031       -0.2342934291
 N         -0.2201766070        2.7148436325       -0.2149151815
 C          0.2295723725        1.4657275030       -0.1135131117
 N         -0.6615061370        0.4746415954       -0.0357368105
 C         -0.1527144853       -0.7530267731        0.0694497096
 N          1.1740937729       -1.0227001106        0.0945634475
 C          1.9508181892        0.0377773877        0.0054340612
 N          1.5685627929        1.2983945638       -0.0984114738
 S          3.6803457434       -0.2147504263        0.0225070966
 C          3.7720166324       -2.0268064455        0.1657140900
 N         -0.9481417524       -1.8178697216        0.1622582083
 C         -2.4097189322       -1.8399159170        0.1303623363
 C         -2.9000770012       -1.2717792705       -1.2039804499
 C         -2.8373046220       -3.2996538829        0.2728628164
 C         -2.9614442362       -1.0116739649        1.2932094062
 H         -2.8663692537        4.7978970487       -0.3627601965
 H         -1.3527238020        5.0590557701        0.5052041909
 H         -1.3524350745        4.9291320851       -1.2592354271
 H         -2.1012319696        2.5441264350       -1.0797918920
 H         -2.0941301446        2.6751535153        0.6812821817
 H          0.4673922840        3.4490196286       -0.2678549447
 H          3.2772653192       -2.4709240444       -0.6902199289
 H          3.2897998471       -2.3301991404        1.0876474019
 H          4.8281165319       -2.2690370030        0.1773947241
 H         -0.4638429945       -2.6999025081        0.2303749062
 H         -3.9847974498       -1.2856046085       -1.2386385653
 H         -2.5537697505       -0.2479500701       -1.3107445224
 H         -2.5122874550       -1.8610123291       -2.0314978565
 H         -2.4410414118       -3.8955785218       -0.5455016914
 H         -3.9206519150       -3.3675818325        0.2542391811
 H         -2.4826226131       -3.7104882046        1.2147530724
 H         -4.0466058467       -1.0267666461        1.2777985101
 H         -2.6153408869       -1.4143471309        2.2419488452
 H         -2.6178491850        0.0143028092        1.2019827627
  35
        -49.05462835
 C         -1.4460502207        3.9938174462       -0.6461603301
 C         -1.1522442323        3.1856435419        0.6143993855
 N          0.1622422252        2.5861416603        0.5746387019
 C          0.3955485283        1.3002479923        0.3042673002
 N         -0.6314456059        0.4555544684        0.2174557865
 C         -0.3213798004       -0.8181454968       -0.0187289823
 N          0.9509125349       -1.2671352405       -0.1634909127
 C          1.8789170282       -0.3376314603       -0.0589562829
 N          1.6926099077        0.9494147470        0.1675376425
 S          3.5236728475       -0.9006177644       -0.2490970270
 C          4.4555456101        0.6490610792       -0.0443119746
 N         -1.2457577249       -1.7696607912       -0.1378384589
 C         -2.7059478833       -1.7679446258       -0.0620316383
 C         -3.2780389377       -0.3778832677        0.1863768096
 C         -3.2306225396       -2.3155298726       -1.3946452758
 C         -3.1060318089       -2.7071747246        1.0819752147
 H         -2.4427788270        4.4190340695       -0.5840782254
 H         -0.7274194355        4.8014197767       -0.7600571537
 H         -1.3926496804        3.3536174578       -1.5232702715
 H         -1.8684552370        2.3709254710        0.7186905797
 H         -1.2067419377        3.8318078696        1.4939569449
 H          0.9663927788        3.1945407697        0.5512857945
 H          4.1665003692        1.3383870282       -0.8292270367
 H          5.5014864540        0.3779067571       -0.1269964154
 H          4.2333081028        1.0642955609        0.9318263576
 H         -0.8401555653       -2.6791843438       -0.3131950128
 H         -4.3619663946       -0.4410375889        0.2199112789
 H         -2.9165575509        0.0197960784        1.1292418484
 H         -2.9863452480        0.3029242786       -0.6068743269
 H         -4.3149774731       -2.3643577181       -1.3754009503
 H         -2.8414124506       -3.3137309536       -1.5787437491
 H         -2.9246152801       -1.6679347837       -2.2124185397
 H         -4.1876936412       -2.7624592225        1.1563650146
 H         -2.7180634141       -3.7079680929        0.9098342563
 H         -2.7094074552       -2.3391656735        2.0248730790
  35
        -49.05462763
 C         -1.8370915762        3.9888794849       -0.6366799595
 C         -1.4619885370        3.2441288592        0.6414080925
 N         -0.0884497448        2.7949917843        0.6212373242
 C          0.2919355470        1.5449472754        0.3501986448
 N         -0.6361707106        0.5926566133        0.2379447155
 C         -0.1847568149       -0.6369005389        0.0064009187
 N          1.1325629784       -0.9450866535       -0.1123572986
 C          1.9508025524        0.0777844376        0.0134096975
 N          1.6208179273        1.3376809568        0.2393879948
 S          3.6668227501       -0.2257356429       -0.1313438504
 C          3.6842863067       -2.0208556177       -0.4315126661
 N         -0.9948849373       -1.6853089739       -0.1318161842
 C         -2.4483495347       -1.8424267828       -0.0981757954
 C         -2.7710809635       -2.8541727724        1.0077449770
 C         -3.1730071594       -0.5305102156        0.1748307801
 C         -2.8789865419       -2.4012934088       -1.4595845390
 H         -2.8741663578        4.3051323098       -0.5851039959
 H         -1.2087406010        4.8663014694       -0.7670636443
 H         -1.7107113867        3.3396325356       -1.4996202447
 H         -2.0836697716        2.3567261387        0.7589866146
 H         -1.5936426530        3.8974813835        1.5071959234
 H          0.6461194494        3.4859984583        0.6169963612
 H          3.2152534830       -2.5203108611        0.4081505541
 H          4.7289524544       -2.2956154843       -0.5177270165
 H          3.1477291321       -2.2278732071       -1.3501339459
 H         -0.4907961692       -2.5448959181       -0.3038777936
 H         -3.8423366988       -3.0237759183        1.0547341349
 H         -2.2779179482       -3.8036934153        0.8155774494
 H         -2.4354599642       -2.4767506118        1.9704450627
 H         -2.9441274224        0.2004886152       -0.5939332259
 H         -2.8733124673       -0.1220949855        1.1347602228
 H         -4.2440238777       -0.7118040131        0.1851891348
 H         -2.6248778419       -1.6997426574       -2.2502530942
 H         -2.3818921346       -3.3468306378       -1.6610983091
 H         -3.9521314358       -2.5650262037       -1.4712176228
  35
        -49.05461005
 C         -1.8061866587        4.1022440910        0.5459586075
 C         -1.4689840922        3.2359203205       -0.6637410905
 N         -0.0967182439        2.7842085475       -0.6334097803
 C          0.2854868999        1.5363142031       -0.3577931644
 N         -0.6410991640        0.5835865300       -0.2339090221
 C         -0.1866356171       -0.6440361406        0.0020672751
 N          1.1315239069       -0.9491147163        0.1190411239
 C          1.9477751032        0.0740847162       -0.0161095532
 N          1.6152207784        1.3314247827       -0.2515903024
 S          3.6645135668       -0.2261141939        0.1279275197
 C          3.6836897598       -2.0179355511        0.4472126781
 N         -0.9934699270       -1.6945560798        0.1441215767
 C         -2.4466606426       -1.8556486345        0.1227431677
 C         -2.7739300439       -2.8818398753       -0.9684116717
 C         -2.8668075895       -2.3990377604        1.4937291614
 C         -3.1762636474       -0.5489265756       -0.1617036853
 H         -1.1766745240        4.9880718513        0.5691433663
 H         -2.8450092098        4.4128502514        0.4951306455
 H         -1.6520683118        3.5421045803        1.4647748486
 H         -1.6237733842        3.8048643035       -1.5842697147
 H         -2.0945984339        2.3438061959       -0.6815814626
 H          0.6389890116        3.4737604253       -0.6536895139
 H          3.2133817741       -2.5266234486       -0.3862573311
 H          3.1487181913       -2.2153224779        1.3689455033
 H          4.7286324900       -2.2911933633        0.5345599221
 H         -0.4860379965       -2.5514465127        0.3197410501
 H         -2.2727523732       -3.8260067470       -0.7704877867
 H         -3.8444793427       -3.0588648865       -1.0023883569
 H         -2.4505840628       -2.5133097242       -1.9387918941
 H         -3.9398399740       -2.5624617089        1.5156856784
 H         -2.6063513314       -1.6885830070        2.2743414574
 H         -2.3680910080       -3.3422850742        1.7020031296
 H         -2.9506336174        0.1889588356        0.6014271025
 H         -2.8776281746       -0.1472197566       -1.1247898834
 H         -4.2465468790       -0.7344592593       -0.1709809221
