! pbe def2-sv(p) def2/J RI DEFGRID1 loosescf d4 GCP(DFT/SV(P)) printgap
%output
    printlevel normal
end
* xyz 0 1
C 4.0004321206 1.7223716607 -1.2895284245
C 2.7456336014 1.0890545208 -1.8493566036
O 2.496658908 -0.2068287591 -1.2680946023
P 2.1764633264 -0.4086993662 0.2646579528
S 1.1188642591 0.9951420002 1.1426639174
O 3.6181543566 -0.6510946679 0.8844940175
C 3.8292525195 -0.8187126224 2.3021853668
C 4.2987558559 0.4802871417 2.9283757034
S 1.4143873785 -2.3769298624 0.2334568198
C -0.1980310101 -2.1101386944 -0.5498584315
S -1.4319308529 -1.377075602 0.5708767497
P -2.1174778739 0.1795547369 -0.7189647159
S -0.822431825 0.9100537999 -1.9886845937
O -2.8307609686 1.1953327037 0.2636521007
C -2.1268293467 2.1020342153 1.1348787109
C -3.1335620282 3.1039828298 1.6603436807
O -3.3276815689 -0.4491235261 -1.5074113508
C -4.477240272 -1.0600331906 -0.8695026616
C -5.6097251979 -0.0642568921 -0.7270031132
H 3.8612508747 1.9410760219 -0.2313770435
H 4.843341615 1.0454415915 -1.4020948018
H 4.2022858775 2.64818751 -1.8189198139
H 2.8294932406 0.8804552141 -2.9166560523
H 1.8696349041 1.7219338187 -1.674336521
H 2.9029406461 -1.1651188368 2.7688209235
H 4.5891276888 -1.598178373 2.3798261084
H 3.524231762 1.2393353274 2.8406074032
H 4.5124044161 0.3134552657 3.9791073401
H 5.1971916659 0.8322967991 2.4292916749
H -0.5442005575 -3.0967734026 -0.8458137604
H -0.0777773323 -1.4504738131 -1.4131312101
H -1.6704509868 1.525632816 1.9437385915
H -1.3278000228 2.5890504833 0.5676666683
H -3.5808411892 3.6513788282 0.8353278447
H -3.9152062938 2.5909637629 2.2130258753
H -2.6255445313 3.8000081666 2.3193407472
H -4.7500899786 -1.8794718733 -1.5367790081
H -4.1714393514 -1.457844153 0.1023928897
H -5.8619625094 0.3530096755 -1.6980241125
H -6.4777698324 -0.5716207802 -0.3178079695
H -5.3200787291 0.7451698792 -0.0627496493
*
