! pbe def2-sv(p) def2/J RI DEFGRID1 loosescf d4 GCP(DFT/SV(P)) printgap
%output
    printlevel normal
end
* xyz 0 1
C 1.7044694002 0.2413225284 -3.2843280283
C 2.3523585735 0.3239485564 -1.9193034365
O 1.5350505516 -0.4348144848 -1.0005011022
P 1.8792973797 -0.4858897191 0.5414311332
S 2.3981632534 1.1807976171 1.4449778646
O 3.035425414 -1.5817094634 0.5373142048
C 3.813325719 -1.8812662264 1.7133756665
C 5.1581416491 -2.4191147226 1.2671294808
S 0.248552118 -1.5316817701 1.3308684272
C -0.7398701318 -0.157764979 2.0211565674
S -2.3791827829 -0.038682443 1.2853670724
P -1.810612028 0.7529733588 -0.6092147319
S -0.4079775896 2.1196457119 -0.5545754277
O -3.2091927044 1.1556073778 -1.2462780608
C -4.2434607819 1.9076589411 -0.5833920538
C -3.7540421801 3.2395833385 -0.0558216109
O -1.3676803731 -0.421615976 -1.5612347625
C -2.2130973569 -1.5173576164 -1.9963731351
C -1.9917611864 -2.7546153314 -1.1495742659
H 1.6440561053 -0.7944853798 -3.6047887397
H 0.7006267695 0.6565309047 -3.2362791192
H 2.2952468948 0.8108671212 -3.9942411547
H 2.4001282447 1.3579483253 -1.5599592966
H 3.3580078419 -0.1043046745 -1.9200326898
H 3.9232615063 -0.9635174397 2.3012377968
H 3.2619955737 -2.6210794437 2.2989252804
H 5.69582223 -1.6631231488 0.7014227897
H 5.7393385417 -2.6904737735 2.1421841934
H 5.0172084316 -3.2952729208 0.6408574657
H -0.1912451709 0.7762627075 1.8691972569
H -0.8946866983 -0.3558000381 3.0784972118
H -4.9987504105 2.0404417636 -1.3600755105
H -4.6445548666 1.2939699151 0.2276289838
H -3.2975622043 3.8202184197 -0.8540848855
H -4.5904612987 3.7926476605 0.3590031801
H -3.0088752552 3.0858715393 0.7234356729
H -3.2548947428 -1.1940066257 -1.9696025337
H -1.9080353268 -1.6882335867 -3.0301696981
H -0.9346921006 -3.0071920164 -1.1246044089
H -2.3334016244 -2.5969876488 -0.1294658174
H -2.5459876134 -3.5803233253 -1.5845230124
*
