! r2scan-3c def2/J RI DEFGRID2 scfconv6 printgap
%output
    printlevel normal
end
%cpcm
    smd true
    smdsolvent "water"
end
* xyz 0 1
C 5.5358034144 -1.9041979671 -1.4612057649
C 4.6965653637 -0.80078986 -0.8375104558
O 3.4013267356 -1.2905093524 -0.4385538147
C 2.4581637741 -1.3772226557 -1.3573033216
O 2.5979486711 -1.0899755342 -2.5234569333
C 1.1525650457 -1.874982567 -0.7578748216
C 0.1589955868 -0.7080940099 -0.7446067875
H -0.0208333218 -0.3610427 -1.7660187205
C 0.7846953131 0.4272108351 0.0437719532
O 1.677879513 1.1010617276 -0.4168754561
O 0.314574839 0.522599392 1.2688035895
C 0.9237623404 1.4814783089 2.1566383694
C 2.0807976033 0.8407871647 2.9039818304
S -1.4126807803 -1.2675545084 -0.0151541866
P -2.3314183942 0.6289969758 0.2473668411
S -1.6211707429 2.0947876924 -0.8455874202
O -3.8745572027 0.2954586232 -0.0115157234
C -4.3579925406 -0.0415951268 -1.3166014029
O -2.3716800009 0.9658974794 1.7877298931
C -2.8998305063 0.0337326739 2.7566157108
H 5.0750422723 -2.2463815312 -2.3847882054
H 6.5245800255 -1.5169809718 -1.6833186846
H 5.6229750747 -2.7414201623 -0.7742580792
H 4.5483953103 0.0257829226 -1.5384543084
H 5.1437058484 -0.434401525 0.0867802908
H 1.3282632579 -2.2357445964 0.2551666141
H 0.7529485135 -2.6758582633 -1.3800786224
H 1.2576716064 2.335695293 1.5606912892
H 0.120029524 1.7848631941 2.8279914607
H 2.8456794983 0.5216859534 2.1989714174
H 2.509317498 1.5671234657 3.5862707468
H 1.7337190616 -0.0212985775 3.4663631183
H -5.4420513862 -0.0102800527 -1.2437435818
H -4.019245598 -1.0406678399 -1.5903423204
H -4.0045897683 0.6865391995 -2.0483720302
H -2.711330788 0.4919850819 3.7237931933
H -2.3822064923 -0.9215046521 2.6709527624
H -3.9668339645 -0.1021046047 2.593839112
*
