  19
        -26.29927712
 C         -2.5115010721       -0.7573716856        0.0004984033
 C         -1.2152390917        0.0045989698        0.0000876127
 C         -1.2067256431        1.3925492797       -0.0000258322
 C         -0.0191695101        2.0996804801       -0.0002520770
 C          1.1854602162        1.4184471019       -0.0001460431
 C          1.2174475344        0.0340887523       -0.0000195040
 C          0.0082136243       -0.6689265172       -0.0001472372
 O          0.0864073809       -2.0332307500       -0.0005784014
 C          2.5049006958       -0.7313672853        0.0005494801
 H         -2.5976759957       -1.3827489259       -0.8882874347
 H         -2.5935981065       -1.3888627692        0.8853324611
 H         -3.3476150762       -0.0639771412        0.0047863398
 H         -2.1476061609        1.9232859362        0.0001213599
 H         -0.0315250863        3.1789615188       -0.0003400461
 H          2.1162650558        1.9662366258       -0.0000603377
 H         -0.8012419640       -2.4187744742       -0.0014001980
 H          2.5538753645       -1.3792556339       -0.8734195848
 H          3.3558657912       -0.0566079210       -0.0044365272
 H          2.5579406222       -1.3710400076        0.8803931745
  19
        -26.29874122
 C         -2.5097091743       -0.7651061884        0.0017580215
 C         -1.2164891041       -0.0041878901       -0.0007768359
 C         -1.2174305315        1.3830941044       -0.0006213727
 C         -0.0337852006        2.0963936278       -0.0001993861
 C          1.1719859165        1.4188525970        0.0003221814
 C          1.2141466212        0.0328574384        0.0001949137
 C          0.0083628365       -0.6762944975       -0.0004953135
 O         -0.0156333865       -2.0442899761       -0.0010702640
 C          2.5304492011       -0.6943061183        0.0008304787
 H         -3.1247043568       -0.4656368520       -0.8448775098
 H         -2.3206154506       -1.8326841456       -0.0571515465
 H         -3.0662243315       -0.5561524997        0.9140357397
 H         -2.1642392651        1.9027733945       -0.0012178640
 H         -0.0492416351        3.1756277361       -0.0003838389
 H          2.0993127051        1.9728757595        0.0009230558
 H          0.8876650758       -2.3910855968       -0.0093877482
 H          2.6272823042       -1.3278937563        0.8827359536
 H          2.6368064388       -1.3118865326       -0.8913480300
 H          3.3473935696        0.0215531478        0.0115931074
  19
        -26.29708100
 C         -2.5473443504       -0.7117755732       -0.0016328322
 C         -1.2146412657       -0.0124915667       -0.0004706436
 C         -1.2055853850        1.3792099701        0.0005530367
 C         -0.0254347677        2.0935388381        0.0009690475
 C          1.1826654714        1.4162066305       -0.0004936458
 C          1.2159847776        0.0338957023       -0.0010256014
 C          0.0098340735       -0.6810249085        0.0002305864
 O          0.1250818746       -2.0426555358        0.0020711154
 C          2.5065507837       -0.7265170700       -0.0010258661
 H         -3.1221879691       -0.4014737869       -0.8728553995
 H         -2.4699104502       -1.7955327684       -0.0203111652
 H         -3.1099009813       -0.4299606817        0.8872614048
 H         -2.1512383857        1.9014898223        0.0009670028
 H         -0.0429056755        3.1727312198        0.0019618834
 H          2.1120452428        1.9663139230       -0.0012196646
 H         -0.7475555618       -2.4606155854        0.0062181133
 H          2.5752269386       -1.3446921194        0.8930531443
 H          2.5457520435       -1.3951098978       -0.8596417824
 H          3.3542909150       -0.0484936651       -0.0338001667
  19
        -26.29637567
 C         -2.5132945529       -0.7584869865        0.0033784068
 C         -1.2152860048       -0.0048388141        0.0002356249
 C         -1.2145055271        1.3804093396        0.0004883865
 C         -0.0273924978        2.0898841605       -0.0012672125
 C          1.1710154648        1.4048683327       -0.0010148169
 C          1.2139561315        0.0151748431       -0.0004662974
 C          0.0068568006       -0.6891467622       -0.0018289329
 O         -0.0533065237       -2.0558918254       -0.0038860947
 C          2.5665146091       -0.6458171395        0.0045443370
 H         -3.1005019261       -0.4992422103       -0.8759679444
 H         -2.3315179266       -1.8286829038        0.0030609600
 H         -3.0953430578       -0.4991296079        0.8861115545
 H         -2.1600998093        1.9022108279        0.0011127492
 H         -0.0374096508        3.1691539357       -0.0020354996
 H          2.1033855131        1.9505353977       -0.0006732426
 H          0.8366045826       -2.4350495052       -0.0177534028
 H          3.1208936373       -0.3353903189        0.8890591056
 H          2.5234540126       -1.7315945206        0.0015676972
 H          3.1313400675       -0.3300176885       -0.8712897225
