! pbe def2-sv(p) def2/J RI DEFGRID1 loosescf d4 GCP(DFT/SV(P)) printgap
%output
    printlevel normal
end
* xyz 0 1
C 0.9730503217 1.791321962 2.3759205997
C 1.7118235701 0.5554497483 2.8495563745
O 2.5530483635 0.0071297853 1.8195087527
P 2.0013514404 -0.9655533732 0.6899661699
S 0.7772246025 -2.3625731714 1.3000047839
O 3.3140478022 -1.6067637006 0.0927234807
C 4.4282080539 -0.8483091044 -0.4382536314
C 5.4607365137 -0.5665604757 0.6338558695
S 1.3109339994 0.3515531936 -0.8385428163
C 0.3605976445 -0.8728104205 -1.7883217705
S -1.1524712097 -0.1857140766 -2.516308886
P -2.2349165559 0.4041994726 -0.7963083515
S -4.1483737208 0.7117368344 -1.073883638
O -1.4621782207 1.6417964103 -0.1494340155
C -1.7184415723 2.9985965262 -0.5448360174
C -1.1389899591 3.3033421545 -1.9117908905
O -1.823530984 -0.7659043985 0.1892380349
C -2.6564677354 -1.1520672787 1.3011118321
C -2.6797707789 -0.0921836683 2.3808916443
H 0.4548270023 2.2404906445 3.2176943194
H 1.6758702172 2.5096815857 1.9623318427
H 0.2453395373 1.5338429608 1.6093288475
H 1.016054115 -0.2228023215 3.1814491024
H 2.4040728894 0.7931125116 3.6592675039
H 4.8362301287 -1.4884648631 -1.2224933381
H 4.0470254547 0.0794144582 -0.8747114592
H 5.7822654224 -1.4965858085 1.0948600479
H 6.3170838388 -0.0777380867 0.1796852964
H 5.0444042351 0.0796677049 1.4013982587
H 0.10611647 -1.7027597738 -1.1264857684
H 0.9489938614 -1.2065959856 -2.6398544186
H -2.801059196 3.1626755464 -0.5362362112
H -1.2440143198 3.5959064099 0.2351209726
H -1.6675132355 2.7355707859 -2.6769987546
H -1.2481626181 4.3625638346 -2.1205534184
H -0.0855012402 3.0343849958 -1.9405123961
H -3.665572638 -1.3454356848 0.9246345267
H -2.2011644848 -2.0801892891 1.6521355748
H -3.1314529728 0.8199694701 1.9930679233
H -3.2676944844 -0.4510557304 3.2196416849
H -1.6687672122 0.1239003405 2.7158144758
*
