! pbe def2-sv(p) def2/J RI DEFGRID1 loosescf d4 GCP(DFT/SV(P)) printgap
%output
    printlevel normal
end
* xyz 0 1
C 3.5559591265 -1.4760687361 1.8279788054
C 2.8574489008 -2.2843906912 0.7469108183
O 2.6648695415 -1.4947555404 -0.4458016875
C 1.6515405448 -0.6754128391 -0.506559704
O 0.8399520154 -0.5011387342 0.3930940671
C 1.5531847698 0.0715623078 -1.8114533666
C 0.3705130259 1.02295574 -1.7234603229
H 0.3113672387 1.6591593515 -2.6106620076
C 0.4269784976 1.9142111296 -0.4909239226
O -0.5490679475 2.2987678195 0.108378879
O 1.671244408 2.2380995699 -0.1969218112
C 1.8975573521 3.145590096 0.9004850395
C 1.797966865 4.5902170228 0.4388930199
S -1.2399712411 0.1546153304 -1.7536467273
P -1.6140616306 -0.9241123428 0.0396584801
S -0.9515577866 -2.7416798286 0.359574374
O -1.7000821648 0.0540409596 1.302605938
C -0.9027536462 -0.0234384724 2.4775277384
O -3.1762159704 -1.1303245832 -0.2547031526
C -4.1157515061 -0.0524244988 -0.4099614536
H 4.4992373007 -1.0875912095 1.4542146985
H 2.9261585698 -0.6466169092 2.1422170969
H 3.7443161278 -2.1154689998 2.6838126194
H 1.8828330741 -2.6463894828 1.086994244
H 3.4704816239 -3.1210843291 0.4136422628
H 1.417667936 -0.6403431682 -2.6269523313
H 2.481813918 0.6193028422 -1.9784734495
H 1.1645996925 2.937607248 1.6853834478
H 2.9030683258 2.9056929049 1.2469511035
H 0.7867806231 4.8068784713 0.102103993
H 2.0409675178 5.2468968744 1.2676280471
H 2.4914799447 4.7706087761 -0.3774602194
H -1.5594532817 0.2447543091 3.3023526494
H -0.0759065671 0.6808142805 2.3989133641
H -0.5149057625 -1.0352478049 2.6064726285
H -5.0608958468 -0.4293198726 -0.0260939499
H -4.2022684393 0.1941454869 -1.4671766596
H -3.7942709997 0.8203992377 0.1561106768
*
