! pbe def2-sv(p) def2/J RI DEFGRID1 loosescf d4 GCP(DFT/SV(P)) printgap
%output
    printlevel normal
end
* xyz 0 1
C 3.430352709 1.1689409698 2.8655904092
C 2.2359451586 1.4619725411 1.9822424354
O 2.4321439507 0.9313351857 0.6583543422
P 2.3005466862 -0.6101015853 0.3243279199
S 1.1052025293 -1.595076214 1.5330738304
O 3.8280938781 -1.0396985989 0.2958117669
C 4.3733077978 -2.169813912 -0.4090947478
C 3.6646694024 -3.467355897 -0.0785961437
S 1.7467152904 -0.5664494334 -1.7193016053
C -0.0278200696 -0.5177521621 -1.4332297838
S -0.5307397219 1.0679105486 -0.6802212005
P -2.5874646703 0.5278061782 -0.5413577953
S -3.3148007931 -0.4184190115 -2.0870335256
O -3.315917556 1.8762963074 -0.1206612284
C -3.8174194158 2.8189226478 -1.0883486756
C -2.7060886744 3.4658953515 -1.8883904857
O -2.6901544158 -0.333433957 0.7755111884
C -2.3762956003 0.2025452909 2.0864960418
C -2.2643515288 -0.9607991555 3.0480439509
H 4.3365432348 1.5622625837 2.4134094988
H 3.2824254077 1.6230932425 3.8401930011
H 3.5386043911 0.0912812431 2.985576664
H 2.0933452407 2.5310833378 1.8220563962
H 1.3260098124 1.0234878184 2.4059497935
H 4.3186301331 -1.9603261668 -1.4809636696
H 5.4163474344 -2.1921282034 -0.0883195332
H 3.6562948044 -3.6335041424 0.9962728356
H 2.6345141887 -3.4343879986 -0.4318622337
H 4.176262045 -4.2918431639 -0.5646513049
H -0.3077235597 -1.3289106953 -0.7565821173
H -0.5196771484 -0.6275298193 -2.3987002759
H -4.513327376 2.2946747056 -1.750011851
H -4.3564463676 3.5479579232 -0.4817347322
H -1.9562299671 3.8884977178 -1.2241811345
H -2.2303027216 2.7260203254 -2.5304896275
H -3.1230905482 4.2522432141 -2.5092857771
H -1.4359606264 0.7579994302 2.0174692654
H -3.1788972994 0.8863121044 2.3683075115
H -1.4294745928 -1.6000709154 2.7697292535
H -2.1000909902 -0.5792307123 4.0504096908
H -3.1779702637 -1.5475054281 3.0281114991
*
