! pbe def2-sv(p) def2/J RI DEFGRID1 loosescf d4 GCP(DFT/SV(P)) printgap
%output
    printlevel normal
end
* xyz 0 1
C 5.4926399394 -1.7432017439 -1.2457524998
C 4.6443668196 -0.4820010415 -1.2081521175
O 3.242288938 -0.7994064443 -1.3015240365
C 2.5876988197 -1.0761018948 -0.1910940708
O 3.0770348592 -1.0832911534 0.9146800137
C 1.1270972141 -1.3879585932 -0.4742648045
C 0.4656281833 -0.2318568208 -1.2301528405
H 0.9902159706 -0.0562936268 -2.1721067785
C 0.4834103807 1.0230698475 -0.3850393341
O -0.5395594364 1.5435863761 0.022187178
O 1.6885239832 1.4489103042 -0.1455626558
C 1.8632357468 2.5339566201 0.7965781483
C 1.8435835807 2.000339776 2.2191678241
S -1.2670362556 -0.5921926598 -1.6683803692
P -2.2825404166 -0.1556239137 0.135158613
S -1.5519705058 -0.4162490004 1.9499651686
O -3.2420283164 1.1121053615 -0.0380870672
C -3.0922503176 2.3827133537 0.5931110904
O -3.3571545199 -1.2990775325 -0.2181837952
C -4.459701787 -1.5814048182 0.6459075303
H 5.2855362246 -2.3591572101 -0.3736334444
H 5.2743081124 -2.3151088743 -2.1432453638
H 6.5426500484 -1.4700566583 -1.24192618
H 4.8377400907 0.1530687757 -2.0725334179
H 4.8144440538 0.071050628 -0.2805222689
H 0.6218984366 -1.5715500491 0.4766921082
H 1.0697586161 -2.2849609008 -1.0917184695
H 2.8341210591 2.9560930173 0.5393088238
H 1.0682749078 3.2667914369 0.6387995779
H 0.8652068245 1.5863284683 2.4581963676
H 2.582476329 1.2102934643 2.3328829469
H 2.0647975261 2.8051332431 2.9116646591
H -2.5639934752 2.2722241555 1.5411282753
H -4.1016403865 2.753120683 0.7592273043
H -2.5372033464 3.0511375052 -0.0616573651
H -4.8596758916 -2.5352019644 0.3111383869
H -5.2124437453 -0.7982207213 0.5611825829
H -4.1165711505 -1.6550692174 1.6803897403
*
