! r2scan-3c def2/J RI DEFGRID2 scfconv6 printgap
%output
    printlevel normal
end
* xyz 0 1
C 2.1576050935 -1.1978472969 -0.1020708583
C 1.3993621171 0.1027772766 0.0063700171
O 1.9707768012 1.1977310881 0.0550417436
N 0.0682712957 0.0091466028 0.0483807225
C -0.712530273 -1.2142973981 -0.0289696191
C -2.1471983659 -0.7552489551 0.2308214997
C -2.1536996621 0.6719943447 -0.3135186059
C -0.7833789467 1.1885399992 0.1088137302
H 1.8381728591 -1.7482781285 -0.9829667069
H 1.9784489513 -1.8097117177 0.778415526
H 3.2184888696 -0.9769036071 -0.1748819683
H -0.6167633637 -1.6539318658 -1.0274853806
H -0.370109673 -1.9425721197 0.7077642228
H -2.8761503234 -1.3964593044 -0.2574192462
H -2.3478322935 -0.7438949767 1.3017932535
H -2.230745342 0.6615167987 -1.4005314096
H -2.9607860454 1.2757116991 0.0919902867
H -0.3772847259 1.966029515 -0.5411162068
H -0.7964481638 1.5774794829 1.1328144422
*
