! r2scan-3c def2/J RI DEFGRID2 scfconv6 printgap
%output
    printlevel normal
end
* xyz 0 1
C 3.7975271736 -3.6420838787 -0.2804698118
C 4.3602094729 -2.3769324105 -0.9083100172
O 3.3657444969 -1.7250500075 -1.7245037227
C 2.5169066672 -0.9075102378 -1.1438631183
O 2.5225774074 -0.6262546496 0.0368461996
C 1.5290767129 -0.3220934209 -2.1314476445
C 0.380309578 0.3267749302 -1.3710372779
H -0.2539628284 0.9061208204 -2.0494746928
C 0.9340307557 1.2857297278 -0.3274044257
O 1.7795419701 2.1069617782 -0.6000860279
O 0.327852028 1.1733891944 0.8359605578
C 0.7479520457 2.0238885442 1.9221286688
C 1.6958628697 1.2699297335 2.8387813864
S -0.6659729393 -0.9638031817 -0.6054779216
P -2.1445338276 0.2986077725 0.1935861096
S -2.3967991831 2.1171568766 -0.4838143113
O -3.365534841 -0.6934435086 -0.1611094985
C -4.7188872606 -0.2860732537 0.0761456425
O -2.0722710834 0.2844148515 1.7898154718
C -1.8070392444 -0.9354008324 2.5039293871
H 2.9805017389 -3.3929411432 0.3928294622
H 3.4270790807 -4.309697162 -1.0531541404
H 4.5794165603 -4.14192039 0.2815761227
H 5.1732137912 -2.6004918512 -1.5988399017
H 4.6949355508 -1.6756552846 -0.1387807128
H 1.173372979 -1.1004368958 -2.8048608043
H 2.051744847 0.4408321889 -2.7130975883
H 1.2282832958 2.906851718 1.4915362848
H -0.1755980967 2.3068167464 2.4305474565
H 2.5346511375 0.8882411454 2.2606923039
H 2.0630207564 1.943741262 3.6054649857
H 1.1861540807 0.4333395472 3.3076729414
H -5.3376253254 -1.069232149 -0.3540810667
H -4.9127271163 0.6686606574 -0.4155312803
H -4.907237241 -0.1880294834 1.1457107703
H -0.7498117958 -1.1847847549 2.4165882932
H -2.4094599094 -1.7519837566 2.1051233931
H -2.0705821804 -0.7284448074 3.5380405784
*
