! pbe def2-sv(p) def2/J RI DEFGRID1 loosescf d4 GCP(DFT/SV(P)) printgap
%output
    printlevel normal
end
* xyz 0 1
C 3.4071599582 -3.3076222391 0.3448896212
C 2.901192955 -1.9769661171 0.8778904311
O 2.7047471602 -1.0307387403 -0.1902609749
C 1.6000306876 -1.0935754657 -0.9023441216
O 0.696917048 -1.8849021474 -0.7176355849
C 1.5688693459 -0.0323317564 -1.9831697969
C 0.3898302055 0.9184264083 -1.7595425874
H 0.3398117393 1.6355274232 -2.5839371687
C 0.49748531 1.6878160361 -0.4578459162
O -0.4517336969 1.8256383766 0.292863428
O 1.6945978324 2.1523596789 -0.2476070299
C 1.9452275746 2.8904478902 0.9692798576
C 1.5465246686 4.3479982921 0.8125221197
S -1.2299114979 0.0706695548 -1.7825334578
P -1.673927989 -0.3379555058 0.2583353824
S -0.4647791847 -0.6321914302 1.7896655556
O -2.9165329021 0.6063148958 0.5687712243
C -2.9620249474 1.6136803066 1.577777024
O -2.6004327697 -1.6244828195 0.0112321704
C -2.0941659204 -2.9268411726 -0.2749310708
H 3.6092893517 -3.9709237385 1.1792141634
H 2.6559840987 -3.7657217559 -0.2945387442
H 4.3193284094 -3.1588592787 -0.2264535471
H 3.6371842204 -1.500477619 1.5249901545
H 1.9561758212 -2.0985593979 1.4158568342
H 1.4346800974 -0.5266367085 -2.9455699879
H 2.5029207658 0.5276379097 -1.9636479264
H 1.3932435006 2.4137381679 1.7843394659
H 3.0184325849 2.7834599617 1.1244644848
H 2.0684930121 4.790452784 -0.0311954719
H 0.4740793067 4.4309648404 0.6520901943
H 1.8073234365 4.8864293806 1.717458219
H -2.2214607142 1.4094616526 2.3535107126
H -3.966529052 1.5796712151 1.9936252855
H -2.760571553 2.5830030107 1.12505459
H -2.9477215212 -3.5948141309 -0.1905969152
H -1.320621868 -3.1967548738 0.4454013023
H -1.6734800922 -2.9581027455 -1.2796995529
*
