! pbe def2-sv(p) def2/J RI DEFGRID1 loosescf d4 GCP(DFT/SV(P)) printgap
%output
    printlevel normal
end
* xyz 0 1
C 2.8738860021 -1.5182165918 -2.9105924766
C 3.2231470725 -0.4123523114 -1.9348368791
O 2.8652953109 -0.8303643633 -0.6028547567
P 2.1095688124 0.0446770337 0.4774777328
S 1.4705133459 1.7904054334 -0.1887436861
O 3.2517221972 0.1740621389 1.5757903299
C 3.0389177932 0.3399582004 2.9894761071
C 2.0604937521 1.4509805407 3.3107029932
S 0.8316851243 -1.3802053881 1.3754017207
C -0.0736137672 -2.0314488037 -0.0690333757
S -0.3389090426 -0.8493451663 -1.4189840901
P -1.8784502305 0.3191839692 -0.5918369985
S -2.4906407125 1.8632518509 -1.6287545813
O -1.2613251925 0.6097750877 0.8372976324
C -1.9704080179 1.4019962706 1.8150247324
C -2.5772403991 0.5025339233 2.8721229129
O -3.0438151065 -0.7104842458 -0.2189977993
C -4.1146998558 -1.0031748233 -1.1304283604
C -3.6376634165 -1.8038720565 -2.3252522232
H 3.3580428152 -2.4424036874 -2.6091774948
H 1.7972607147 -1.6693432682 -2.9408511844
H 3.2203730743 -1.2364382659 -3.8994209672
H 2.693868055 0.5175127377 -2.1716258163
H 4.2978014437 -0.2180932016 -1.9221070031
H 2.6864661372 -0.6139683991 3.3924381395
H 4.0352608318 0.5604868936 3.3766792276
H 1.9755519686 1.5614580508 4.3868860227
H 2.395181595 2.3897208886 2.8744522503
H 1.0809773814 1.2098282703 2.8976144401
H -1.0323167745 -2.3829027998 0.3070275157
H 0.5054068314 -2.8434779592 -0.5031340186
H -1.2176952087 2.0731615256 2.2358794678
H -2.7306012206 2.0006011307 1.3022128702
H -1.8026815061 -0.1144002387 3.3205730001
H -3.0386153722 1.1176111649 3.6380514576
H -3.3295181394 -0.1440354497 2.4279788568
H -4.8313209185 -1.5624935228 -0.5275938187
H -4.5569433624 -0.0566651399 -1.4568677742
H -2.9372997791 -1.2088106004 -2.9113374312
H -3.1422086666 -2.7160822432 -2.003498587
H -4.488561966 -2.0576780788 -2.9490936065
*
