! pbe def2-sv(p) def2/J RI DEFGRID1 loosescf d4 GCP(DFT/SV(P)) printgap
%output
    printlevel normal
end
* xyz 0 1
C 2.7494939831 -0.5931383797 -3.1298284782
C 2.9316458767 0.1653687031 -1.8328462217
O 2.2408053498 -0.5628695159 -0.7926005732
P 1.884558169 0.1204153207 0.5857496737
S 1.2803454635 1.9918079797 0.5696038331
O 3.2528064217 -0.0394486185 1.3886290734
C 3.5934639218 0.7147657926 2.5646635796
C 5.0714746916 1.0490898959 2.5107142595
S 0.7281828861 -1.4117822654 1.4625430868
C -0.2471956188 -2.1117296564 0.0849717824
S -2.015620436 -1.7722572959 0.2003239223
P -1.9971078001 0.1686339183 -0.6694938318
S -0.6667775444 0.4298625171 -2.078484401
O -1.7916288382 1.2312111962 0.4736159862
C -2.6239692263 1.3429818468 1.6555782651
C -1.8933897966 0.8029052664 2.8688825292
O -3.5237870983 0.405679848 -1.0388349151
C -4.3653920046 -0.5219611366 -1.7520940408
C -3.7813300133 -0.9412784964 -3.0843067389
H 3.1122853269 -1.6106799849 -3.0187846511
H 1.6959806508 -0.6138220586 -3.3986150738
H 3.3067632455 -0.0917080197 -3.9139959273
H 2.5039294323 1.1719655888 -1.895032453
H 3.9837939238 0.2363073779 -1.5473750001
H 2.9822249003 1.6238089914 2.587605796
H 3.356594627 0.093417288 3.4315308081
H 5.2796995541 1.6888175314 1.6571218207
H 5.3513271883 1.567770195 3.4216769544
H 5.654565725 0.1371657266 2.420214798
H -0.1354608442 -3.1906920922 0.1455730495
H 0.134360983 -1.7182455365 -0.8582102632
H -2.8125322221 2.4132806123 1.7530636881
H -3.5643257212 0.8153158706 1.4830047995
H -1.750369485 -0.2728577459 2.793545556
H -0.9186945387 1.2792109591 2.9513769349
H -2.4739268823 1.0228612934 3.7588746014
H -4.5314608967 -1.3918733768 -1.1110208094
H -5.2981418597 0.0299711096 -1.880741073
H -3.5524967805 -0.0676987785 -3.6903496922
H -2.8611523057 -1.5032569963 -2.9321655998
H -4.4962861745 -1.5664321299 -3.6092585992
*
