! wb97x-v def2-tzvp def2/J RIJCOSX DEFGRID2 scfconv7 GCP(DFT/TZ) printgap
%output
    printlevel normal
end
%cpcm
    smd true
    smdsolvent "water"
end
* xyz 0 1
C 4.9400362498234034e-05 1.817115322239022 0.0035596632050055857
C 1.8625976635356356e-05 0.49405170192425596 0.0002697325557408531
Cl 1.4582781305354124 -0.46179713191760857 -0.0008409096441660338
Cl -1.4582852861211864 -0.4617298195871569 -0.0010750435325371896
H -0.9347927193074634 2.365249692025336 0.003652738084254232
H 0.9349184357803266 2.3652053833432305 0.0038188240575293074
*
