! pbe def2-sv(p) def2/J RI DEFGRID1 loosescf d4 GCP(DFT/SV(P)) printgap
%output
    printlevel normal
end
* xyz 0 1
C 3.2613537056 -2.3524800471 0.8152975573
C 2.517200124 -2.6201548113 -0.481695031
O 1.8465288847 -1.4173700455 -0.9077793625
C 2.0991086139 -0.9188890987 -2.1060210829
O 2.8619091675 -1.4127661173 -2.9053695188
C 1.3347750099 0.3615341991 -2.3723422183
C 0.3247733707 0.7088567897 -1.2878814592
H -0.0994696561 1.7014020131 -1.4735226609
C 0.9373716436 0.7253218837 0.0979095747
O 0.3758889157 0.2343223009 1.0588641337
O 2.0790786132 1.350328625 0.1309040459
C 2.7018334751 1.564143494 1.4167146037
C 2.1554549623 2.8253963981 2.0648805957
S -1.0606584733 -0.4772131562 -1.2543813251
P -2.0653288195 0.2903500673 0.4703562349
S -1.8081998257 2.1551834533 1.0256037338
O -3.5789983241 0.2446099755 -0.0291421278
C -4.2147823462 -0.9373890741 -0.5391840684
O -2.1758680462 -0.8794977259 1.5515223899
C -1.2096081352 -1.4987300765 2.3972781765
H 2.5722614669 -1.9794323223 1.5690824012
H 3.7074069854 -3.2762953621 1.168236547
H 4.0457513765 -1.6167410577 0.6574341956
H 1.7354724514 -3.3703776309 -0.3412364784
H 3.1946301185 -2.9371690308 -1.2794107985
H 0.8369838658 0.261164291 -3.3380713373
H 2.0678575029 1.1675954933 -2.4549309266
H 2.5168326513 0.6899975828 2.0455325642
H 3.7639734021 1.6576580204 1.1910943981
H 2.3484396148 3.6878520339 1.4333444636
H 1.079624688 2.7394958951 2.2114570802
H 2.6326801576 2.971899068 3.027969321
H -4.3951209128 -1.6398714981 0.2723174113
H -3.58916908 -1.398719365 -1.3045433243
H -5.1531868598 -0.5953612613 -0.9683859896
H -0.7412947356 -0.7612012839 3.046065033
H -0.4494228621 -1.9965185903 1.7974648648
H -1.7751464733 -2.2226019598 2.9809213492
*
