! r2scan-3c def2/J RI DEFGRID2 scfconv6 printgap
%output
    printlevel normal
end
* xyz 0 1
C 4.5068187946 1.2380556261 -1.9525942726
C 5.0191038017 0.351766508 -0.8346478701
O 4.0611554952 -0.6511499171 -0.4501974206
P 2.71465162 -0.2811510927 0.287113282
S 2.8096918077 1.185873498 1.5898669562
O 2.4747818807 -1.7266558315 0.8871346519
C 1.3772337301 -2.0507851824 1.761889253
C 0.3328769711 -2.868070142 1.0253605311
S 1.2918642729 -0.0222626251 -1.285218941
C 0.3052992146 1.3015014601 -0.5310828005
S -0.8183950586 0.7290797415 0.7712663034
P -2.4103540793 0.1186318632 -0.520600091
S -1.9829019813 -1.2287454126 -1.8716589299
O -2.9135054628 1.4622428283 -1.172764522
C -3.4272008382 2.5857526456 -0.411135819
C -4.9372451174 2.5239726022 -0.3124670607
O -3.57994433 -0.2681263348 0.4800196129
C -3.6195314077 -1.5353768418 1.1644311871
C -3.0040105012 -1.4249778304 2.5456157521
H 4.1518432012 0.631782971 -2.7824064189
H 3.6857576195 1.8563133692 -1.5920985635
H 5.3093929914 1.8836284 -2.2947190528
H 5.2690784081 0.9503490591 0.0473770331
H 5.8892665132 -0.2269234797 -1.1476410347
H 1.8244844972 -2.6315919094 2.5713212398
H 0.9539090028 -1.1280607283 2.1746443719
H 0.7990723825 -3.7382671352 0.5722586763
H -0.4276708861 -3.1934979069 1.7278707514
H -0.1378317811 -2.2860153501 0.2345689801
H -0.2689505751 1.7541845972 -1.3362311688
H 0.9728718598 2.0209346532 -0.0562609588
H -2.9646022794 2.5850212149 0.5794034326
H -3.1030962652 3.4643093785 -0.9722266915
H -5.2955644469 3.4162550664 0.1915098896
H -5.3733255524 2.4737960731 -1.306469916
H -5.2437604677 1.6462476353 0.2494251143
H -4.6807705599 -1.783609177 1.223593812
H -3.1061001401 -2.2831436215 0.5514252378
H -1.9550791271 -1.1453601669 2.4755092165
H -3.5254576684 -0.670342861 3.1274208897
H -3.0855435517 -2.3829334486 3.0490256044
*
