! pbe def2-sv(p) def2/J RI DEFGRID1 loosescf d4 GCP(DFT/SV(P)) printgap
%output
    printlevel normal
end
* xyz 0 1
C 4.0045160572 -2.8397782978 0.5132107903
C 2.5063262958 -2.8456412487 0.2577722745
O 2.1728742122 -2.0209466522 -0.8754784706
C 2.029497743 -0.7282984346 -0.6973045422
O 2.1329527625 -0.1499497696 0.3663236848
C 1.7063787691 0.0001128673 -1.9878513086
C 0.4823127232 0.8963196183 -1.781278053
H 0.4101831651 1.6231626462 -2.5931678005
C 0.5578497067 1.6320541705 -0.4585813777
O -0.2745459626 1.4625503805 0.4204368714
O 1.5383799921 2.4773235204 -0.4090704407
C 1.7603983201 3.2107993915 0.8171503906
C 0.8620011921 4.4333411977 0.8944530016
S -1.0823537005 -0.0485527304 -1.8257487034
P -1.6457406904 -0.4184733852 0.1816042491
S -0.5940846096 -1.2167949387 1.6454273267
O -2.7773952958 0.6136476667 0.6582232455
C -2.6688495922 1.5292243324 1.7454077174
O -2.6345472738 -1.5413880079 -0.4356744589
C -3.4861258266 -2.3343175108 0.3892147368
H 4.5368831736 -3.1512991601 -0.3812696276
H 4.3311840458 -1.8417619362 0.7961223999
H 4.228992886 -3.525374112 1.3233808765
H 1.9549913756 -2.4801708065 1.1300804468
H 2.1502327835 -3.8379725727 -0.0188303197
H 1.5210966428 -0.7163557488 -2.7856829197
H 2.5651875572 0.6266006505 -2.2376403038
H 1.5884479806 2.5319410937 1.6565988381
H 2.8125317223 3.4897910334 0.7674358239
H 1.0178682605 5.068181296 0.0268340759
H -0.1826576027 4.1337807992 0.9339640086
H 1.099173879 4.991286615 1.7940378789
H -1.9023906765 1.1943583531 2.4462095381
H -3.6445389862 1.5437632156 2.227022752
H -2.41409397 2.5158379672 1.363066393
H -4.3476780691 -1.7483691583 0.7085787007
H -2.9353747597 -2.689772716 1.2635357393
H -3.8000334094 -3.1724473822 -0.228127306
*
