! pbe def2-sv(p) def2/J RI DEFGRID1 loosescf d4 GCP(DFT/SV(P)) printgap
%output
    printlevel normal
end
* xyz 0 1
C 2.7421456967 -0.5450624129 -2.7149695178
C 1.5341262093 0.1269110738 -2.0992740078
O 1.0748361867 -0.568031606 -0.9246466332
P 1.9207083003 -0.569567173 0.4231231043
S 3.0355029987 1.0117747633 0.7650369272
O 2.7336360358 -1.9273883441 0.2694837536
C 3.888918589 -2.2310087154 1.0711532887
C 3.5273569794 -2.4841877467 2.5205316756
S 0.4316746217 -1.0893080813 1.8118212308
C -0.3302641158 0.5450778735 2.0923190562
S -0.4442169058 1.6045320188 0.625748857
P -1.9837301181 0.6752157653 -0.4829148693
S -2.0705043505 1.1528495297 -2.381095502
O -3.3490541863 0.9512923617 0.3051214787
C -4.1757166414 2.0892642148 0.0207345895
C -3.5350676466 3.3811611269 0.48682275
O -1.735448005 -0.8341128781 -0.088396555
C -2.4961925927 -1.9207322178 -0.6633185579
C -1.7747249472 -2.5014143004 -1.8626249468
H 3.5909755052 -0.4714526867 -2.0359338921
H 2.5316576049 -1.5939493594 -2.9064627961
H 2.9904271537 -0.0480319118 -3.6474284625
H 0.6735694087 0.1171702614 -2.7715573954
H 1.7622584799 1.1624368371 -1.8221394511
H 4.3093189171 -3.1194606293 0.5980947731
H 4.5930121697 -1.3963517812 0.991680349
H 3.1706989636 -1.5638704286 2.9807844298
H 2.7449496942 -3.2356959656 2.5893627735
H 4.4074472408 -2.8274132806 3.0548377153
H 0.2836088018 1.1076035377 2.7935209407
H -1.3219118335 0.3562436592 2.4960768441
H -4.3616980815 2.1213173053 -1.0578141151
H -5.1053067289 1.8828512852 0.5528704206
H -3.2934034567 3.3272493684 1.5450758002
H -2.6173519483 3.5623179252 -0.0731495826
H -4.2201434535 4.2050998939 0.3152917457
H -2.5728769726 -2.6491343186 0.1460525627
H -3.492135147 -1.5602228268 -0.9333777362
H -0.7578761468 -2.7686702418 -1.5856226119
H -2.3008806596 -3.3863593533 -2.2060496429
H -1.7368112423 -1.7731355089 -2.6701054987
*
