! pbe def2-sv(p) def2/J RI DEFGRID1 loosescf d4 GCP(DFT/SV(P)) printgap
%output
    printlevel normal
end
* xyz 0 1
C 2.7463790809 2.1524884634 -2.0709887108
C 3.3085836151 1.2381034202 -1.0023489606
O 2.2885828852 1.0422238924 0.0127951472
P 2.0978939948 -0.3161346998 0.7881713777
S 0.6422113522 -0.1232937212 2.0810826022
O 3.567862339 -0.565922574 1.3372645585
C 4.0876014466 -1.8267656674 1.8003021808
C 3.2241107974 -2.4583970446 2.8717928373
S 1.8803653474 -1.8636322953 -0.6676057526
C 0.1084809962 -1.7015109551 -0.9303667762
S -0.3071344464 -0.080224363 -1.6693718062
P -2.1503907745 0.2979472887 -0.7239593448
S -2.6911607657 -0.893945005 0.7424702056
O -3.1014482391 0.2280722039 -1.9881038672
C -4.5208319118 0.0100760226 -1.8699998497
C -5.2189829341 1.2061213828 -1.2583160164
O -2.127682747 1.8685184334 -0.4720321206
C -1.2872151726 2.5558724102 0.4683191162
C -1.8803589635 2.5424160413 1.8630078431
H 2.4472298177 3.0997900647 -1.6318416699
H 3.5082891164 2.3292146672 -2.8231250771
H 1.8786801084 1.693040131 -2.5385864385
H 4.1725338944 1.6807059352 -0.503879766
H 3.5856249248 0.2650744465 -1.4177204382
H 4.1828800811 -2.4921492841 0.9380349647
H 5.0761958536 -1.5695577831 2.18449507
H 3.7027086913 -3.3614192211 3.2366395727
H 3.0785527045 -1.7676784448 3.6992295112
H 2.2468598574 -2.715280312 2.4646626769
H -0.4217513879 -1.7910339891 0.0228755231
H -0.1743063561 -2.4952822284 -1.6171934664
H -4.8437062242 -0.1710398658 -2.8958278812
H -4.6842696923 -0.8852106403 -1.2613642507
H -4.8840432824 1.3375661149 -0.2298741116
H -4.9849114187 2.1061008671 -1.820674217
H -6.291870284 1.0415626519 -1.2631985625
H -0.290064498 2.1037402745 0.4683962261
H -1.2256825816 3.5713999283 0.0724210621
H -1.9070972808 1.5261777662 2.2524821863
H -1.2605522957 3.1444178811 2.5196771174
H -2.8900100782 2.9436418228 1.847575171
*
