! pbe def2-sv(p) def2/J RI DEFGRID1 loosescf d4 GCP(DFT/SV(P)) printgap
%output
    printlevel normal
end
* xyz 0 1
C 3.1820042396 0.0039881867 -2.8813065618
C 1.8313882941 0.4247646191 -2.3442489882
O 1.3664203873 -0.4745561886 -1.3227871112
P 2.0415491984 -0.5565231828 0.1089952929
S 2.7428547533 1.1421928494 0.8058201498
O 3.0940658684 -1.7205156052 -0.1491899074
C 3.7187333422 -2.5420978979 0.8546016845
C 4.3567576737 -1.7406336484 1.9700262058
S 0.5725042191 -1.5312158783 1.259183126
C -0.1562208263 -0.1148312822 2.1482147882
S -1.9255661661 0.0596680284 1.8383141261
P -1.8065522322 0.7308191245 -0.1770290395
S -0.5269507973 2.1750939875 -0.5004677112
O -3.3212877045 1.0793802586 -0.4976554321
C -3.9607419631 2.2292518567 0.0951503322
C -5.2424384537 2.4931457776 -0.6682538018
O -1.5313271353 -0.5291822328 -1.075766642
C -2.3278741319 -1.7421357062 -1.0374184569
C -3.3948775776 -1.7181632257 -2.1112686476
H 3.4644220218 0.6600505374 -3.698634232
H 3.9278224198 0.0777453838 -2.0904400993
H 3.1420555363 -1.0235974633 -3.232654821
H 1.0508462915 0.3817104762 -3.1055765593
H 1.8717619435 1.43726068 -1.9273046621
H 2.9621029684 -3.2240860623 1.2523484283
H 4.4655467527 -3.1055789722 0.2921963933
H 4.8813980182 -2.4136486266 2.6404850807
H 5.0588577215 -1.015578309 1.5651916118
H 3.5950456452 -1.201487135 2.5313637082
H 0.3702756972 0.7966453823 1.8493286323
H -0.0531282825 -0.2967845974 3.2147934337
H -4.1588791055 2.0037186469 1.146282053
H -3.2727382483 3.0788207075 0.034492098
H -5.7409371699 3.3547915013 -0.2367708278
H -5.0206149708 2.6937346705 -1.7126741262
H -5.8982894986 1.6298225196 -0.6046484249
H -1.6041908061 -2.5425106959 -1.204518895
H -2.7679608288 -1.8459959485 -0.0415484827
H -3.9308047726 -2.6620713708 -2.0967829239
H -4.0925334985 -0.9049879355 -1.9303551111
H -2.9394849303 -1.5786277782 -3.087851387
*
