! pbe def2-sv(p) def2/J RI DEFGRID1 loosescf d4 GCP(DFT/SV(P)) printgap
%output
    printlevel normal
end
* xyz 0 1
C 2.1534447109 -0.1254773123 -2.6270883955
C 1.7534882332 -1.2073297486 -1.6433808112
O 2.5891805164 -1.2236621703 -0.4792964919
P 2.5061297963 -0.2127965479 0.7533277733
S 3.0904089342 1.6297005147 0.4357844878
O 3.4716783084 -0.9046955716 1.7830383024
C 3.1904138163 -2.0734153056 2.5935425096
C 2.7154828704 -3.2624912966 1.7870097522
S 0.5426918948 -0.4522474517 1.5489656323
C -0.1092847695 1.1953558437 1.2018323164
S -0.3818370813 1.5400694051 -0.5676974383
P -2.1959632727 0.4996221356 -0.8332297923
S -3.0444198973 0.6029925773 -2.59618992
O -3.1501922381 0.9171054254 0.3817613828
C -4.115750709 1.9720823359 0.2480286353
C -3.4540649762 3.3328726284 0.1624362241
O -1.7180246243 -0.9387474136 -0.3731262244
C -2.6328221949 -2.059098361 -0.3310911402
C -1.8189060596 -3.295434774 -0.0112402149
H 3.1961681353 -0.2426283998 -2.9098059855
H 1.5281158501 -0.1969494225 -3.5119287431
H 2.0223906682 0.8610174627 -2.1859355998
H 1.8884450347 -2.200084866 -2.0780866137
H 0.7092757678 -1.0867716927 -1.3357463464
H 4.1477196965 -2.2724839837 3.0776182771
H 2.447197027 -1.7901091133 3.3429833416
H 1.7418487317 -3.0558189711 1.3468555435
H 3.4230181205 -3.4865526303 0.9930993578
H 2.6284211804 -4.1219149265 2.4446582959
H 0.6126906332 1.9434252543 1.5276553837
H -1.0504218443 1.2759799435 1.7393336411
H -4.7133451455 1.7815914018 -0.6490762478
H -4.7388121482 1.8785434577 1.1384987083
H -2.8227301433 3.5106222163 1.0294956352
H -2.8409412067 3.38893703 -0.7372353928
H -4.2180143839 4.1021018641 0.11333595
H -3.3806813352 -1.8614794982 0.440216111
H -3.129626395 -2.1341985121 -1.303741647
H -1.0855859683 -3.4744573734 -0.7924581617
H -1.3023050943 -3.1586253055 0.9349301368
H -2.4827162479 -4.1507574995 0.0591270833
*
