! pbe def2-sv(p) def2/J RI DEFGRID1 loosescf d4 GCP(DFT/SV(P)) printgap
%output
    printlevel normal
end
* xyz 0 1
C 2.1534933832 -3.8827040423 0.583152417
C 2.8446599894 -2.5348425459 0.5010898284
O 2.3674148975 -1.842392043 -0.6687047265
C 2.1282839935 -0.5552579241 -0.6097998691
O 2.2769322889 0.1455427223 0.3726690808
C 1.6657904249 -0.0001569537 -1.9440373073
C 0.4355007201 0.8949026332 -1.7685067896
H 0.3435376844 1.5696878887 -2.6223135563
C 0.5208287293 1.7170047357 -0.4964107905
O -0.2432974574 1.5462452098 0.4385723375
O 1.4346514314 2.6374912391 -0.567162536
C 1.670995523 3.4657038371 0.5926478471
C 0.6889907361 4.6237248065 0.6481311195
S -1.1264443428 -0.0496746782 -1.7463263546
P -1.627100137 -0.4405242403 0.2782061882
S -0.3931541874 -1.2133240493 1.6021015758
O -2.6946730928 0.6332444399 0.7678950414
C -2.5732163379 1.4288480954 1.9465383747
O -2.7621330428 -1.527447524 -0.0888698736
C -2.432495319 -2.8462550056 -0.5242149836
H 1.0934531244 -3.7413541007 0.7780731612
H 2.2785022969 -4.4223695849 -0.350511942
H 2.5854150173 -4.4563514954 1.3959933232
H 3.9256785046 -2.6471042319 0.3829879814
H 2.6308021579 -1.9218388323 1.3816325575
H 1.4476627921 -0.8153450639 -2.6318715217
H 2.4849509729 0.6053769505 -2.3381346497
H 1.5984069351 2.8344813227 1.4823509132
H 2.6949387766 3.8146059155 0.4615881944
H -0.3270807872 4.2526982727 0.7620155027
H 0.9289170245 5.2523404836 1.4990695149
H 0.7520337379 5.2126219095 -0.2626038996
H -3.5185068897 1.3420828859 2.4787791238
H -2.3868847044 2.4614571556 1.6561675662
H -1.7532664249 1.0687750193 2.5706955114
H -2.0675222227 -2.826569125 -1.5514773224
H -3.3560346127 -3.415860734 -0.4583670145
H -1.6741504252 -3.2769586801 0.1334883373
*
