  23
        -48.70357775
 C         -3.5594503595       -1.7989998555        0.0487398954
 O         -2.9064333895       -0.5345050705        0.0137731239
 C         -1.5605117065       -0.4330713691        0.0199368693
 C         -0.6360798329       -1.4870217977        0.0506724056
 C          0.7582357272       -1.2285518290        0.0468479681
 C          1.2178123044        0.0807319649        0.0475527808
 C          0.3109886047        1.1617694948       -0.0047493784
 C         -1.0591007971        0.8700658571       -0.0215240603
 Cl        -2.2451837371        2.1201920381       -0.0845886373
 C          0.7453310571        2.5516127848       -0.0347333542
 O          1.8883772525        2.9657946850       -0.0448037556
 Cl         2.9068841360        0.4418655498        0.1669198469
 O          1.4770984378       -2.3823280938        0.0820560682
 C          2.7933321858       -2.4865784698       -0.4493399349
 O         -1.0420641210       -2.7648090068        0.0861184519
 H         -3.3082095969       -2.3486128837        0.9551675808
 H         -3.3116029903       -2.3952782753       -0.8287609288
 H         -4.6189475731       -1.5528207894        0.0440757818
 H         -0.0884500147        3.2695678027       -0.0526944821
 H          2.8881677774       -1.9332625549       -1.3823748496
 H          2.9318528407       -3.5505649290       -0.6321312538
 H          3.5374529100       -2.1371571344        0.2646977725
 H         -0.2597179201       -3.3509865074        0.0934907327
