! pbe def2-sv(p) def2/J RI DEFGRID1 loosescf d4 GCP(DFT/SV(P)) printgap
%output
    printlevel normal
end
* xyz 0 1
C 1.2910579893 0.6976114697 3.004241631
C 2.4111100502 0.9418007353 2.0133669928
O 2.8889179499 -0.2852114183 1.4321334958
P 2.1942057213 -1.0637352625 0.2310825405
S 0.4809018005 -1.9446003762 0.5717870624
O 3.2811715613 -2.137126675 -0.135606613
C 4.6541216379 -1.8050502385 -0.4676532485
C 5.5520609225 -1.963103675 0.7419600184
S 2.2566045975 0.3502318027 -1.3825215465
C 0.4935907914 0.5207473831 -1.6913685913
S -0.3383331319 1.3837724273 -0.3171256224
P -2.3186158379 0.666758848 -0.6629896403
S -2.4707392595 -0.9630313914 -1.7318254568
O -3.0592106644 1.864092299 -1.3684606521
C -3.1120274272 3.2120997643 -0.8364202284
C -4.3681112732 3.4259159161 -0.017476675
O -2.9566287841 0.6720848336 0.7913845224
C -2.718666466 -0.3676036911 1.7613085239
C -3.8636813828 -1.360617963 1.7586180226
H 0.4213846954 0.2885038744 2.4951213048
H 1.6098540729 -0.0079233229 3.7665423343
H 1.0168523478 1.637795026 3.4709827326
H 3.2915740877 1.358958084 2.5054802675
H 2.0824770335 1.6138358861 1.2140251193
H 4.920364459 -2.5111980547 -1.2560754397
H 4.6865101596 -0.7851549983 -0.860583642
H 6.5788519854 -1.7684662506 0.4485373517
H 5.2614629678 -1.2655565931 1.5223515336
H 5.4752450412 -2.9746059067 1.1312133254
H 0.030844953 -0.4632445986 -1.8049510376
H 0.3982896168 1.1089983591 -2.6010492967
H -2.2126608773 3.3912943205 -0.2400275266
H -3.1024762742 3.8491141213 -1.7226104847
H -4.3599646205 2.7880396915 0.8617734227
H -4.4150456008 4.4650877661 0.2929388429
H -5.244970005 3.1893342028 -0.6138809446
H -1.7750069613 -0.8735288039 1.5398527
H -2.6422028628 0.1528526319 2.7177976764
H -4.8049506141 -0.8519916989 1.946606497
H -3.9188140848 -1.8607126425 0.7937308503
H -3.6917515981 -2.1045300966 2.5296149779
*
