! pbe def2-sv(p) def2/J RI DEFGRID1 loosescf d4 GCP(DFT/SV(P)) printgap
%output
    printlevel normal
end
* xyz 0 1
C 3.8969127427 0.9807204065 -1.6105143674
C 2.3850431172 1.0563641913 -1.5827268077
O 1.8346479404 -0.0181082716 -0.8058807567
P 1.8258472906 -0.0041086242 0.7791502551
S 1.9859367613 1.7654136341 1.6050271198
O 3.0367622864 -1.0163619233 1.0348220331
C 3.2695017879 -1.7588517233 2.2435100607
C 3.1709258205 -0.9107902728 3.4947635756
S 0.1097506656 -1.1555732226 1.2578334928
C -0.0094106143 -2.1835637533 -0.2195542724
S -0.627458909 -1.3461462763 -1.7386611371
P -1.8429012709 0.2034040387 -1.0131650959
S -2.9660915578 1.0429602598 -2.3795503437
O -0.7622316422 1.1693009459 -0.346382312
C -1.0774412416 2.5559700155 -0.095192019
C -2.1148252421 2.7147351817 0.9949303227
O -2.6333910028 -0.3590077998 0.250770398
C -3.9388045713 -0.949903361 0.1317115024
C -3.8614682512 -2.3911658892 -0.3311727074
H 4.2868179346 1.7690361642 -2.2464619127
H 4.2854026878 1.110100972 -0.6009707466
H 4.2168974981 0.0142471062 -1.9899551196
H 1.9478139101 0.9234644385 -2.5742816494
H 2.0517452254 2.0093243037 -1.1582514506
H 2.5472506367 -2.5795980422 2.2839439528
H 4.2767841488 -2.1579199872 2.1109108594
H 2.1523948932 -0.5423951315 3.6182151686
H 3.4369376805 -1.5111334183 4.3588959665
H 3.8398741378 -0.0555827417 3.4312967555
H -0.6961279098 -2.9877903619 0.032271279
H 0.9704502479 -2.5702765398 -0.4907694675
H -0.1220604997 2.9938862552 0.2008112164
H -1.4215599939 3.0033757544 -1.0331610554
H -2.2263280122 3.769303468 1.2265043487
H -3.0729384165 2.320007706 0.6602996436
H -1.8000490445 2.1812244535 1.8888268465
H -4.3583223336 -0.8722797575 1.1356221196
H -4.5299713337 -0.3491680013 -0.5679448669
H -3.4217155371 -2.4414391122 -1.326579803
H -3.2594713134 -2.9759861491 0.3591073528
H -4.8634517792 -2.8065241842 -0.369691881
*
