! r2scan-3c def2/J RI DEFGRID2 scfconv6 printgap
%output
    printlevel normal
end
* xyz 0 1
C 3.8578560255 -1.5119508137 -2.5376697483
C 4.1363821701 -1.789969006 -1.0745558615
O 2.9398679306 -1.7515931295 -0.277175773
P 2.1380811123 -0.4076166472 -0.0022711882
S 3.2475331673 1.183470042 0.303453561
O 1.1947201219 -0.8555036247 1.188978072
C 1.4986912137 -0.5662722351 2.5659485344
C 2.6576610739 -1.4020657275 3.067267388
S 0.7291935359 -0.3179210401 -1.5718882599
C 0.2542772999 1.4150493584 -1.3403547691
S -0.457234865 1.753054084 0.2954336859
P -2.1717220728 0.5352755369 0.1094571867
S -2.9477085615 0.375234454 -1.6862237939
O -3.1318329728 1.1267827238 1.2332327921
C -3.8314963043 2.3781739667 1.0698917199
C -5.2406352706 2.1454074119 0.5601228459
O -1.7206276087 -0.8052131914 0.8132847313
C -2.3230826292 -2.0899544643 0.5307238057
C -1.4313655685 -2.9076612632 -0.3822291676
H 3.0730093887 -2.1685087743 -2.9048435793
H 3.5381141406 -0.4788274473 -2.6670992192
H 4.7637495061 -1.6743750598 -3.1128643952
H 4.8428049514 -1.0567714464 -0.6721917146
H 4.5200439107 -2.7995902027 -0.9217509794
H 1.7215123003 0.5024140474 2.6560255996
H 0.5702978189 -0.7921648993 3.0928615293
H 2.802360913 -1.2192387898 4.127391859
H 2.4592567071 -2.4579665141 2.9037109235
H 3.5665783306 -1.1274776076 2.5328691711
H -0.4806016817 1.6373561985 -2.1134244214
H 1.1320998513 2.0543681595 -1.4261675319
H -3.8365393473 2.8230256133 2.0666723358
H -3.267755262 3.0211634834 0.3879465396
H -5.2138492041 1.7015940878 -0.4325796273
H -5.7734278594 1.4761929016 1.2297978896
H -5.763234087 3.0950934602 0.5092691215
H -2.4370378636 -2.5620374422 1.5077974368
H -3.3065775607 -1.9353839607 0.0782212916
H -0.4234996974 -2.9528270395 0.0237368904
H -1.8326588516 -3.9123751567 -0.4674756278
H -1.3875290018 -2.4554456972 -1.3709522203
*
