! r2scan-3c def2/J RI DEFGRID2 scfconv6 printgap
%output
    printlevel normal
end
%cpcm
    smd true
    smdsolvent "water"
end
* xyz 0 1
C 3.7005697786 -3.7357600547 -0.5425358193
C 4.2335165358 -2.4833914213 -1.2200095471
O 3.1840158529 -1.8101472922 -1.9445959687
C 2.4207573854 -0.9592617154 -1.2965281812
O 2.5505580685 -0.6635087024 -0.1260517012
C 1.3570251042 -0.3578719753 -2.1909085266
C 0.3012098725 0.3232234776 -1.3295287895
H -0.3826523832 0.9116397369 -1.9499712054
C 0.9759869651 1.283114117 -0.3640725143
O 1.7969068975 2.0884006773 -0.7457425018
O 0.5336359608 1.1954532405 0.872492118
C 1.1273188951 2.086920171 1.8394121179
C 0.881173401 1.5455293116 3.2324063818
S -0.6890874231 -0.9325476584 -0.457911638
P -2.1278539662 0.3589373048 0.424212494
S -2.2963968402 2.1572199973 -0.3337014186
O -3.466128149 -0.5165182928 0.308804978
C -4.0893409037 -0.7575242923 -0.9572158812
O -1.9329370945 0.3422014828 1.9900778388
C -1.8333583757 -0.8967153773 2.7221592284
H 3.2487612927 -4.3949716651 -1.2781704521
H 4.5175462417 -4.252783558 -0.0502526101
H 2.952089601 -3.4681891281 0.1998466476
H 4.9763479698 -2.72511761 -1.979940882
H 4.6510988252 -1.7897233151 -0.4847908879
H 0.9217222365 -1.1317492754 -2.8215576812
H 1.8391065656 0.3900036541 -2.8248316945
H 2.1949461158 2.1544539569 1.6085196951
H 0.6726866441 3.0730142902 1.6996332805
H 1.2874656805 0.5416089371 3.3162730656
H 1.3713832105 2.1931438346 3.9517280349
H -0.1846167248 1.5224126556 3.4375509602
H -3.4868152964 -1.4549742587 -1.5388403148
H -4.2071537595 0.1806549705 -1.5018571425
H -5.0610497679 -1.1870460951 -0.7276189226
H -1.737231499 -0.6075242145 3.7652915692
H -0.9531350763 -1.448472479 2.3927823446
H -2.7297257411 -1.4938069405 2.5678797833
*
