! pbe def2-sv(p) def2/J RI DEFGRID1 loosescf d4 GCP(DFT/SV(P)) printgap
%output
    printlevel normal
end
* xyz 0 1
C 4.143978111 -1.7006807266 1.3621980565
C 2.752392657 -1.9129468064 0.800806834
O 2.5510572327 -0.965050776 -0.2659992552
C 1.4717135799 -1.0752116694 -1.0066947794
O 0.6089720651 -1.9167522409 -0.8472474161
C 1.4136671282 -0.0153477762 -2.0878435221
C 0.2359010911 0.9298578678 -1.8325552259
H 0.1689098321 1.6582894747 -2.6454686954
C 0.369180864 1.6722578976 -0.5185396837
O -0.566116896 1.804069535 0.2523479145
O 1.56956221 2.1220043995 -0.3118045625
C 1.8572385164 2.7610461641 0.9526492315
C 3.3638220638 2.8570871467 1.0804449287
S -1.3798666457 0.0740713917 -1.8372050972
P -1.804944207 -0.3403686993 0.2065492957
S -0.5722950795 -0.6661929956 1.7108227041
O -3.0362709507 0.6072491829 0.5460756957
C -3.0567936927 1.6096673187 1.5616142794
O -2.7407072059 -1.6203877132 -0.0415710742
C -2.2333570431 -2.9155167629 -0.3590515972
H 4.2270096931 -0.7064939931 1.7903886677
H 4.3291307958 -2.4360186698 2.1378192429
H 4.8842282911 -1.8122751424 0.575556775
H 1.976485685 -1.7495767952 1.5561081372
H 2.6251215941 -2.9197147799 0.3906562872
H 1.2578882035 -0.5093058493 -3.0468399711
H 2.3440934944 0.5506398253 -2.0881641486
H 1.3824769213 3.7460416744 0.952433594
H 1.4121443862 2.1570151782 1.7497182649
H 3.6130003025 3.3102165898 2.0338871155
H 3.8029084506 1.8650428827 1.0291959677
H 3.7688527019 3.4634430641 0.2764368488
H -2.830803682 2.5771740892 1.1164783713
H -2.3214548923 1.3821446875 2.3357873806
H -4.0622927554 1.5960382163 1.9761128759
H -1.4396644176 -3.1910281427 0.3372283643
H -1.8368472499 -2.9295041847 -1.3741587551
H -3.0800466431 -3.5906207067 -0.263843172
*
