! pbe def2-sv(p) def2/J RI DEFGRID1 loosescf d4 GCP(DFT/SV(P)) printgap
%output
    printlevel normal
end
* xyz 0 1
C -0.6839365022 -0.609375459 -0.3172189149
C 0.6941439576 -0.5694545614 0.3430202402
O 1.4793986139 0.5013253781 -0.1264041636
O -1.4081384894 0.5256914635 0.1187170176
H -1.1934344725 -1.5339217541 -0.0215272956
H -0.5617236358 -0.5929800939 -1.407197599
H 1.2454295447 -1.480358654 0.1046734084
H 0.5640012636 -0.4974648068 1.4306684976
H 0.9744761727 1.3179279499 0.0020847783
H -2.281519571 0.5316625582 -0.2941324726
*
