! pbe def2-sv(p) def2/J RI DEFGRID1 loosescf d4 GCP(DFT/SV(P)) printgap
%output
    printlevel normal
end
* xyz 0 1
C 0.9724980458 -1.8542376498 2.157265716
C 2.0485184869 -2.071027779 1.1112820494
O 2.8088818835 -0.8634806122 0.9224931475
P 2.7271598486 0.0303125223 -0.3935062923
S 2.9440038363 -0.9487715179 -2.0765072898
O 3.8920451746 1.0571434463 -0.1503022543
C 4.2812388473 1.6034697443 1.1364490281
C 3.1528958583 2.347379519 1.8168012236
S 0.9262589932 1.1842589753 -0.2852260378
C -0.0202687569 0.3617773377 -1.5813889932
S -0.8945013505 -1.1211507381 -1.0038120374
P -2.45032739 -0.0838108028 -0.0323668278
S -3.2046805987 1.4804741941 -0.9545752697
O -1.7581254172 0.2029196401 1.3600152399
C -2.2268815276 1.2105311417 2.2864772118
C -1.0223519824 1.8864358131 2.9093865197
O -3.5155735203 -1.1947055396 0.3665929589
C -4.6051162441 -1.5669674172 -0.4943795993
C -4.1249721348 -2.2779697854 -1.7431831466
H 0.4494002208 -2.7900487349 2.3255755434
H 1.4222362051 -1.5209427685 3.0884102626
H 0.2547112312 -1.1089385925 1.8233468001
H 1.6217857424 -2.3876646098 0.1538617329
H 2.7737204253 -2.8177512687 1.4416676746
H 4.6407424036 0.781578733 1.758049507
H 5.1079688617 2.2679769943 0.8813167037
H 2.7621514555 3.1248693124 1.1650562118
H 2.3458063585 1.6607310213 2.0650278727
H 3.5251454573 2.7997973043 2.7306693195
H 0.6601227399 0.0381364406 -2.3707794463
H -0.7503151725 1.0816355418 -1.9523475199
H -2.8465596079 1.9296660347 1.7402902289
H -2.8369912729 0.7012825733 3.0352414729
H -0.4112490822 1.1539784299 3.4284652612
H -0.4239828854 2.3644262828 2.1376359485
H -1.362471461 2.6361514337 3.6161321199
H -5.2215814694 -2.2165506675 0.1283214207
H -5.1628247713 -0.6621967498 -0.7568759049
H -3.482466735 -3.1142143318 -1.4789608295
H -4.9807678461 -2.6422693579 -2.3024318093
H -3.5612421951 -1.5890380821 -2.3713671396
*
