! pbe def2-sv(p) def2/J RI DEFGRID1 loosescf d4 GCP(DFT/SV(P)) printgap
%output
    printlevel normal
end
* xyz 0 1
C 3.1948903855 -0.016086611 -2.7871104355
C 1.8085056149 0.3830818278 -2.3294463057
O 1.3180498045 -0.4665851802 -1.2771617161
P 1.9632602628 -0.4923681302 0.1707189491
S 2.6222202727 1.2046755869 0.9088548475
O 3.0846296155 -1.6064704757 -0.0159393725
C 4.1649333589 -1.7826892015 0.9158690225
C 3.6911823021 -2.3265211043 2.2483970287
S 0.4728954926 -1.5177028085 1.2331357034
C -0.4437457063 -0.1284345483 1.9863931648
S -2.1781878047 -0.0888837721 1.496826037
P -1.93428595 0.7674562629 -0.4346177592
S -0.5768513657 2.1752316905 -0.5521788012
O -3.4247258674 1.1359457027 -0.8421654317
C -4.3672283551 1.8386703965 -0.0094884377
C -3.8435847079 3.1762364618 0.4685444984
O -1.6043540599 -0.366641443 -1.4787623281
C -2.4573658678 -1.503815497 -1.7713144043
C -1.9694541103 -2.7477669993 -1.0560590598
H 3.9155353833 0.1702937504 -1.991757778
H 3.2154405685 -1.0722440926 -3.0430625673
H 3.4678133199 0.5753298107 -3.6555378054
H 1.0654324877 0.2687657062 -3.1205998654
H 1.7956467049 1.4186042978 -1.9718126039
H 4.8340140588 -2.4804068078 0.4104244293
H 4.6637130958 -0.8175471001 1.0519469067
H 3.0877583634 -1.5789475885 2.7612249326
H 3.0918053399 -3.2211961592 2.1003515792
H 4.5526359822 -2.5651007661 2.863827658
H 0.0423989595 0.8099542091 1.7044633889
H -0.4367666204 -0.2683642152 3.0640280569
H -5.2373173276 1.9598653958 -0.6572115688
H -4.6186384962 1.1960281651 0.8384955001
H -4.6222895468 3.6919589434 1.0209869862
H -2.9819907562 3.0332640074 1.1192221448
H -3.5349349454 3.7875783118 -0.3763029277
H -3.4846162368 -1.2589025328 -1.4961743836
H -2.3850622687 -1.6173418905 -2.8542766293
H -0.9157959548 -2.9111365061 -1.269267485
H -2.0937944479 -2.6544975786 0.0201710309
H -2.5413579332 -3.6014384288 -1.4056558876
*
