! r2scan-3c def2/J RI DEFGRID2 scfconv6 printgap
%output
    printlevel normal
end
%cpcm
    smd true
    smdsolvent "water"
end
* xyz 0 1
C 0.8563041262 1.3790422725 -0.6269621148
C 1.5889944885 0.1620506523 -0.0480823084
H 2.5584787307 0.0592234656 -0.5554463168
C 0.7703655001 -1.1102963164 -0.3336666744
H 1.2158730141 -1.9329755455 0.244696564
C -0.6813169819 -0.9142283276 0.1457678622
H -1.3089059667 -1.7456212351 -0.1947648453
C -1.2630601064 0.3894191428 -0.4482104858
H -1.3130086841 0.3069165832 -1.5460371238
O -0.4485753919 1.4940749006 -0.0976818392
O -2.5427018645 0.6250980579 0.0034234811
O -0.7806999432 -0.8979290349 1.5470107561
O 0.8411747123 -1.3541206092 -1.7156661754
O 1.7551919803 0.2513699729 1.3480964906
H 0.8173715932 1.2765487648 -1.7189841555
H 1.3585393645 2.3088720301 -0.3582527821
H -2.5516001464 0.5211113267 0.9714350939
H -0.0526445596 -0.353393492 1.8981632829
H 0.5267335135 -2.2484818069 -1.9094917227
H 2.2610534775 1.0471724213 1.5673277454
*
