! pbe def2-sv(p) def2/J RI DEFGRID1 loosescf d4 GCP(DFT/SV(P)) printgap
%output
    printlevel normal
end
* xyz 0 1
C 3.2335651314 -0.8712908947 -3.1652307689
C 4.0934045393 -0.7362095117 -1.9267052591
O 3.5583852075 0.2010586114 -0.9715408048
P 2.0723538037 0.1970440494 -0.4092180257
S 0.7109872553 1.0098533917 -1.559203003
O 2.2247425755 1.0671151815 0.89424412
C 3.2276423938 0.8832622758 1.9240351753
C 2.6747558853 0.0810667033 3.086230228
S 1.8532129705 -1.8475207051 0.1549992891
C 0.2018577117 -1.8349098605 0.896441323
S -1.1369948351 -1.6055910114 -0.3163678095
P -1.9520486975 0.193571938 0.4286906228
S -0.9245413147 1.198741644 1.75316726
O -3.3000063187 -0.4459622371 1.0237806589
C -4.0475319567 0.1792538099 2.0821181433
C -4.7884367789 1.4117157856 1.6026145797
O -2.3987452898 1.0956142128 -0.792379653
C -3.3378107901 0.6890543478 -1.8159182776
C -2.6427360905 -0.0036048374 -2.9708990145
H 3.0745205136 0.1014815045 -3.624809984
H 3.724068575 -1.5304068981 -3.8741133928
H 2.2618565693 -1.2889406876 -2.9044318525
H 5.075355385 -0.3235243417 -2.1651815689
H 4.2055260964 -1.701890437 -1.4263623269
H 4.1065662966 0.4077112339 1.4848659251
H 3.4721428925 1.9012320927 2.2316825139
H 2.5451490755 -0.9631580257 2.8125459003
H 3.36792826 0.1433897825 3.9189616689
H 1.7147836796 0.4937995688 3.3903512661
H 0.1367862617 -1.0358337887 1.6397641184
H 0.0815555567 -2.8152182135 1.3499014848
H -4.7317287421 -0.6011397063 2.4178615832
H -3.3535018577 0.4397716856 2.8876082361
H -5.3598078187 1.8294336 2.4256127781
H -4.0749068389 2.1586329157 1.2541979725
H -5.4628718121 1.1605728718 0.7879475331
H -4.096472723 0.0442651122 -1.3642125531
H -3.7869633045 1.6310015793 -2.1358881448
H -3.3356497667 -0.0910798357 -3.8016373478
H -1.7771174121 0.5782610082 -3.2798613996
H -2.3044946849 -0.9962816439 -2.6824158991
*
