! pbe def2-sv(p) def2/J RI DEFGRID1 loosescf d4 GCP(DFT/SV(P)) printgap
%output
    printlevel normal
end
* xyz 0 1
C 3.2991321995 -3.3839683848 0.2915124284
C 2.9619538934 -1.9965993001 0.8135043953
O 2.7389983869 -1.0752030733 -0.2711439915
C 1.5626248199 -1.0507905418 -0.8490587194
O 0.6204425663 -1.7563326775 -0.5337392831
C 1.485787238 -0.027046609 -1.958686788
C 0.3146380223 0.9246225228 -1.7271613226
H 0.2120445511 1.5959583748 -2.5860990092
C 0.4398756191 1.7904411558 -0.4822257646
O -0.5286772598 2.269074518 0.0690968949
O 1.6855602094 1.9603898995 -0.1215960142
C 1.9539950309 2.763554813 1.0462420483
C 1.8855728368 4.2469933008 0.7243360761
S -1.3093986036 0.0887730586 -1.6632651444
P -1.525463229 -0.5169212996 0.3723123215
S -0.2740432378 -0.1873312326 1.8454496818
O -2.9882207673 0.0825575904 0.6919273978
C -3.2617878406 1.4535325136 0.9715969098
O -1.9240742508 -2.0449450508 0.3315265646
C -2.8409302606 -2.6002879505 -0.6273268439
H 4.1532946619 -3.3338033006 -0.3781725518
H 3.536110022 -4.0313876443 1.1291577638
H 2.44825578 -3.799517138 -0.243746271
H 3.7956849441 -1.5634166852 1.3654473887
H 2.0668477567 -2.0180109128 1.4427496455
H 1.3218360265 -0.5554201267 -2.8993274659
H 2.4198723966 0.5318057866 -1.9945617679
H 1.2335257903 2.4895941635 1.8227427538
H 2.9577770901 2.4624710788 1.3446588695
H 0.8746744996 4.5221231602 0.4327315079
H 2.1621813814 4.8131856728 1.6073374089
H 2.5696973141 4.4865978555 -0.0850097097
H -2.5674221839 1.8322231795 1.7224947641
H -4.2822731477 1.4754380829 1.3459209533
H -3.165955032 2.0483949462 0.0636956811
H -2.9571396398 -3.6401789418 -0.3331175289
H -2.4150299053 -2.529354013 -1.6280227755
H -3.7938568375 -2.0750950974 -0.5838983095
*
