! pbe def2-sv(p) def2/J RI DEFGRID1 loosescf d4 GCP(DFT/SV(P)) printgap
%output
    printlevel normal
end
* xyz 0 1
C 5.3565341904 -0.1145727187 1.4427618982
C 3.898456992 -0.457959567 1.2183548229
O 3.5473265939 -0.0400428252 -0.1249314193
P 2.0388459007 0.1664598761 -0.5744346793
S 1.9511973175 0.7170287101 -2.4448618703
O 1.3828019291 1.1486605472 0.506645603
C 1.3940086419 2.5757296414 0.3283526381
C 2.785471544 3.1512479854 0.4908838727
S 1.1533162365 -1.664599873 -0.0328902394
C -0.1217965029 -1.8105728082 -1.329897369
S -1.7817796043 -1.9727080471 -0.6504570303
P -1.9673952364 0.0079863684 0.1142359384
S -1.4599937169 1.3816326457 -1.1901252467
O -1.1611544428 0.140007607 1.4570778943
C -1.546196999 -0.4040060497 2.7473640729
C -1.5697258697 -1.917737458 2.7615889136
O -3.4731453382 0.0541110821 0.6082801818
C -4.5659627817 0.0451480038 -0.3341949912
C -5.8237277278 0.4410310242 0.411777301
H 5.5086595834 0.9584857998 1.3663680121
H 5.6533087879 -0.4515314317 2.4306509139
H 5.9702886522 -0.6067129918 0.694052686
H 3.2467797814 0.0570747038 1.9292155177
H 3.7250560673 -1.5349555107 1.2872873571
H 0.9893124014 2.8055009551 -0.6630782743
H 0.7032198033 2.9414906005 1.0900140824
H 3.1883127284 2.9012465152 1.4692195876
H 3.4408782503 2.7484483098 -0.2814611524
H 2.7392665117 4.2306256624 0.3853495627
H 0.0706851493 -2.7227699515 -1.8887010192
H -0.0633914466 -0.9315137855 -1.978373013
H -0.7782540059 -0.0099006538 3.4147898979
H -2.5207450857 0.0092088859 3.0116865601
H -0.6284721461 -2.3152870183 2.3878460218
H -1.7189485861 -2.2553814805 3.7825337723
H -2.3810796595 -2.2941877459 2.14275152
H -4.3353803601 0.7492165299 -1.1402845679
H -4.6465856039 -0.9618352042 -0.7516416189
H -6.6613183461 0.4349914183 -0.277799472
H -6.0158544309 -0.2620085325 1.216820375
H -5.7121945305 1.4373311692 0.8303354158
*
