! pbe def2-sv(p) def2/J RI DEFGRID1 loosescf d4 GCP(DFT/SV(P)) printgap
%output
    printlevel normal
end
* xyz 0 1
C 3.5324827613 -2.795126269 0.9591897862
C 3.8323184402 -1.327439153 1.1873426928
O 3.7719492891 -0.5837439382 -0.0561162716
P 2.4943107182 0.2153620412 -0.5431765874
S 2.87522677 1.2739398286 -2.1412789488
O 1.9595448582 1.0366996477 0.7240389038
C 2.2428807876 2.4342600595 0.9044840852
C 3.6805939548 2.6518936159 1.3305891824
S 0.9534268255 -1.2192205831 -0.709150175
C -0.1796105589 -0.17981179 -1.6569644781
S -0.9494275401 1.1583711114 -0.6889129162
P -2.5768555362 0.0715698246 0.1116604738
S -3.8252743972 1.0529503911 1.2568915558
O -1.9479780315 -1.2440129626 0.7568018905
C -1.6696729682 -1.3515618314 2.1621652105
C -0.5948004509 -0.3831132013 2.6113789921
O -3.1688408804 -0.4939463736 -1.2500534112
C -4.5296477433 -0.9637061899 -1.345187214
C -4.7489352014 -2.2311369655 -0.5462170621
H 2.5083986279 -2.9296432479 0.617187305
H 4.2058824468 -3.1993744684 0.2085827513
H 3.6709373855 -3.3331420712 1.8917859904
H 4.8574890403 -1.1839957608 1.5331326622
H 3.1351430877 -0.8836120887 1.9018841511
H 2.0316108937 2.9575023043 -0.0333193963
H 1.5344833966 2.7555714024 1.6692076913
H 4.3517006931 2.294874553 0.5493465701
H 3.8537850274 3.7120398902 1.485758347
H 3.8900829171 2.1142667706 2.2516349272
H -0.9547478834 -0.825435266 -2.0578083465
H 0.3807023221 0.3121004312 -2.4531132309
H -2.5978893826 -1.1651859668 2.7117365205
H -1.3582515061 -2.3890424741 2.2885023638
H -0.9390808499 0.6413778496 2.4656516102
H -0.3862176835 -0.5384044141 3.6649243397
H 0.3161742376 -0.5299725669 2.036982975
H -5.1945235133 -0.1672534056 -0.9965462151
H -4.6742494969 -1.1261043763 -2.4141683181
H -5.7486594698 -2.6076179246 -0.7389793938
H -4.0173831223 -2.9850328597 -0.8250754526
H -4.6506155552 -2.0190986194 0.5174784841
*
