! r2scan-3c def2/J RI DEFGRID2 scfconv6 printgap
%output
    printlevel normal
end
%cpcm
    smd true
    smdsolvent "water"
end
* xyz 0 1
C 1.4472549316 -0.7313642122 -0.2254813977
C 1.4474876156 0.7312392928 0.2254117545
C 0.0431537725 1.2170624228 -0.127073711
C -0.836103916 4.50008e-05 0.0001424497
O -2.049784195 0.0001088974 -7.39664e-05
C 0.0429399367 -1.2171063437 0.1271036736
H 2.2236141676 -1.3157609557 0.262816313
H 1.5986851845 -0.7882067993 -1.3039339709
H 1.5990570205 0.7880428243 1.3038589393
H 2.2239113658 1.3155343935 -0.262993702
H -0.321374177 2.035580047 0.491225539
H -0.0109241554 1.5429801192 -1.1685307166
H -0.0110674498 -1.5428304369 1.1685966792
H -0.3218154593 -2.035592074 -0.4910895961
*
