! pbe def2-sv(p) def2/J RI DEFGRID1 loosescf d4 GCP(DFT/SV(P)) printgap
%output
    printlevel normal
end
* xyz 0 1
C 0.5035859149 -1.7941278685 2.1832298047
C 1.8751707253 -1.164077353 2.3136435673
O 2.2112111144 -0.3493555141 1.1804166842
P 2.4273536451 -0.9675503592 -0.2752643987
S 3.1693160009 -2.7788745961 -0.31020716
O 3.2979831041 0.1624436908 -0.9747161415
C 4.740190252 0.1273957073 -0.9528442256
C 5.2915241885 0.3496210155 0.4398239032
S 0.6172075939 -0.6510095342 -1.3170550992
C 0.4382071219 1.1383775088 -1.0352630431
S -0.3410397407 1.5518478481 0.5464431148
P -2.2786241298 0.912739514 0.0294160963
S -2.8600859925 1.2577212355 -1.8165794542
O -3.2102971881 1.5703077416 1.1374202077
C -3.675520373 2.9320742414 1.0427108899
C -4.9528985721 3.0488611664 1.8498974772
O -2.2507255632 -0.5921793367 0.5132157723
C -3.2097014569 -1.5718774706 0.0524729978
C -2.6169678267 -2.4095683215 -1.0625243287
H -0.2612719581 -1.0327002292 2.0513677637
H 0.4875065865 -2.4614820862 1.3208362845
H 0.2846908715 -2.3699542562 3.0766958774
H 2.6382119904 -1.9426433088 2.4156826328
H 1.9249391099 -0.4750435241 3.1575699269
H 5.0676555729 -0.8392211724 -1.3481518267
H 5.0298522629 0.9257967727 -1.6373517517
H 6.3727777983 0.430911776 0.3887858919
H 4.8790720306 1.2591493673 0.8687753468
H 5.030814742 -0.4924653866 1.0794880345
H -0.1940311065 1.504194131 -1.845077768
H 1.416208229 1.6087461071 -1.0499442271
H -2.8924398979 3.5837438616 1.4379725856
H -3.8454753738 3.1712445234 -0.012625895
H -5.3008628483 4.0761074078 1.8185273331
H -5.7189279363 2.3988240928 1.4364308592
H -4.7667677963 2.762035006 2.8807390854
H -3.4326510572 -2.1758403927 0.9330795295
H -4.1155139297 -1.0604826456 -0.2839752059
H -2.4015808567 -1.7866528066 -1.9283543208
H -1.6899232262 -2.8725151911 -0.7356572751
H -3.3249546051 -3.1812521887 -1.346702263
*
