! pbe def2-sv(p) def2/J RI DEFGRID1 loosescf d4 GCP(DFT/SV(P)) printgap
%output
    printlevel normal
end
* xyz 0 1
C 5.470796145 -0.5871377604 0.0080436131
C 4.2580219892 -1.4930272406 -0.0488558598
O 3.322849676 -1.0498159205 -1.063094606
P 2.0991161078 -0.095727127 -0.7864682247
S 1.1072734537 0.2037454401 -2.4441448581
O 2.7912898036 1.1629729908 -0.1148265915
C 2.108949902 2.3949913753 0.181535431
C 3.1540186334 3.4855577206 0.2963962147
S 1.0434643318 -1.0263602759 0.817977774
C -0.2147142054 -1.8823355995 -0.1868419671
S -1.8418298198 -1.9455481604 0.6021675509
P -2.4928497852 0.0840468614 0.4940033421
S -1.1640515124 1.4844824241 0.120780451
O -3.2975530064 0.3101602806 1.8347077734
C -2.6722657488 0.8524548776 3.0111427266
C -1.7191197552 -0.1367069709 3.6529921161
O -3.768871327 0.0338645218 -0.4440704552
C -3.8122302238 -0.5787852244 -1.7430822169
C -2.9907034094 0.1764898513 -2.7702813958
H 6.1827279197 -0.9931894332 0.7198901981
H 5.9366609546 -0.527635891 -0.971791509
H 5.181828069 0.4128180551 0.3193491859
H 3.7426511934 -1.5285295493 0.9154395123
H 4.5309300386 -2.5027910338 -0.3605976545
H 1.3902995257 2.6058506787 -0.6168231471
H 1.5560207189 2.265404905 1.1151013389
H 3.6956972833 3.5830570259 -0.6404442279
H 2.6601391529 4.4243576083 0.523730345
H 3.8560962496 3.2466563546 1.0899524805
H 0.0808587222 -2.9212435015 -0.3098887275
H -0.2748826336 -1.3707188813 -1.1511799206
H -2.1471791655 1.7729638896 2.7343740175
H -3.5106429713 1.0880814601 3.668024252
H -2.2221312871 -1.0844203237 3.8272277711
H -0.8604613076 -0.3090885026 3.0039693777
H -1.3680725206 0.2646657847 4.5981522937
H -3.4747317614 -1.6166461673 -1.6562218825
H -4.873061924 -0.5602639738 -1.9994672378
H -3.2970292586 1.2190995982 -2.80405893
H -1.9284934237 0.1438685974 -2.527931853
H -3.1349786962 -0.2709073023 -3.7484446588
*
