! pbe def2-sv(p) def2/J RI DEFGRID1 loosescf d4 GCP(DFT/SV(P)) printgap
%output
    printlevel normal
end
* xyz 0 1
C 2.6563338819 2.3424512659 1.258091987
C 1.2449124056 1.9509222926 1.6363352837
O 1.0950582275 0.5384760544 1.921189728
P 1.60093418 -0.6587018921 1.0303664409
S 0.7990301205 -2.3743778113 1.5360432208
O 3.1713033379 -0.6092190787 1.3126473135
C 4.0410327191 -1.7286362811 1.0919072128
C 4.1475637421 -2.1044093216 -0.3727179333
S 1.4227764109 -0.0522515445 -1.0066691856
C 0.3620716652 -1.3724929796 -1.6371953132
S -1.2266963688 -0.7973639524 -2.3172915383
P -2.003633869 0.3778184713 -0.7448878862
S -3.9386596668 0.6563643795 -0.82339219
O -1.1536828263 1.7280458807 -0.6867129165
C -1.4708365251 2.8665805247 -1.5075458853
C -1.0174030167 2.6714887183 -2.9407147667
O -1.4205847777 -0.3679678388 0.5365019523
C -2.2370390317 -0.553377365 1.7114905096
C -2.3034124932 0.7084830087 2.543816292
H 2.7043290922 3.4218441056 1.1499106453
H 3.3552115701 2.0260487883 2.0279757621
H 2.9376570263 1.8796705985 0.3135314368
H 0.5403515322 2.205297214 0.8412574018
H 0.9358300951 2.4274121634 2.5686523032
H 4.999996345 -1.395050566 1.4908084044
H 3.6711319026 -2.5757732639 1.6784481209
H 4.9205447098 -2.8568163473 -0.492205276
H 3.2015614068 -2.5171546995 -0.7205102458
H 4.3971760443 -1.2324517864 -0.9716719373
H 0.1793418232 -2.0893021996 -0.8317840967
H 0.8594448369 -1.8432297438 -2.4820477679
H -2.5513205418 3.0373576916 -1.4582119091
H -0.9431611108 3.6937346825 -1.0300385837
H -1.6074503581 1.8918253254 -3.4203024211
H -1.1509583328 3.5999557561 -3.4864166863
H 0.0311999354 2.3845736198 -2.9666156193
H -3.2380360378 -0.8606374104 1.3934591947
H -1.7527957272 -1.3716711906 2.2477716051
H -2.9158109386 0.5233876933 3.4206251686
H -1.3053571131 1.0034052571 2.855201493
H -2.7510799571 1.5108573513 1.95872981
*
