! pbe def2-sv(p) def2/J RI DEFGRID1 loosescf d4 GCP(DFT/SV(P)) printgap
%output
    printlevel normal
end
* xyz 0 1
C 5.3586705261 -2.2020445326 -0.5481225834
C 4.6282742175 -1.072860739 0.1612813207
O 3.2049130899 -1.2987619227 0.1676869417
C 2.5072349961 -0.9129536968 -0.8784280054
O 2.9677551655 -0.3601955048 -1.8533205216
C 1.0360289372 -1.2558499436 -0.7217020193
C 0.1965744263 -0.118978142 -1.2888620731
H 0.5679542338 0.1285787627 -2.2910512344
C 0.2638291307 1.1456196133 -0.4561247633
O -0.6740082646 1.912501068 -0.3540541136
O 1.4363885428 1.320035743 0.0879005379
C 1.6191258699 2.47658695 0.9334911016
C 3.0692017905 2.5100325787 1.3695456914
S -1.5494256501 -0.5511125674 -1.5312023091
P -2.303886591 -0.2405467912 0.443170481
S -1.0772464491 -0.0890619144 1.9612065951
O -3.4639207647 0.8521756991 0.3336715967
C -3.3564442345 2.2650365691 0.5076129393
O -3.1880006493 -1.5397945062 0.6472581352
C -4.2274220329 -1.9341342192 -0.2674258939
H 5.1065747824 -3.1554097982 -0.0920050131
H 5.0792911429 -2.2259555947 -1.598901403
H 6.4287874002 -2.0402858808 -0.4717429176
H 4.825005409 -0.1157707894 -0.3295419453
H 4.9003015978 -1.0247149393 1.2156598644
H 0.817477364 -1.4350969976 0.3319298992
H 0.8348276338 -2.1661385239 -1.2903490196
H 1.3373133613 3.3669078435 0.3637144548
H 0.938932442 2.3711065497 1.7848677211
H 3.3083300255 1.6066655779 1.9227848319
H 3.7179619529 2.5763644093 0.500803437
H 3.2303590349 3.3737154536 2.0055516686
H -4.3633797442 2.6026408424 0.7424545592
H -2.9915583375 2.7269561049 -0.4076352315
H -2.6732675933 2.4958192351 1.3250120583
H -4.5441755843 -2.9172040259 0.0711788572
H -3.8316685133 -1.9836254937 -1.2821260896
H -5.0500702085 -1.2235084186 -0.2201895386
*
