! pbe def2-sv(p) def2/J RI DEFGRID1 loosescf d4 GCP(DFT/SV(P)) printgap
%output
    printlevel normal
end
* xyz 0 1
C 3.6448582584 -2.2100435408 1.6059416527
C 2.9076692371 -2.8193816926 0.4246157718
O 2.7955411421 -1.8630473275 -0.6492599489
C 1.7802377297 -1.0386049526 -0.6549607335
O 0.8944547597 -1.043717947 0.1864580992
C 1.8019728113 -0.0861595557 -1.8206805422
C 0.6993065675 0.9487624952 -1.6801265325
H 0.6817493766 1.6244741656 -2.5388108031
C 0.8191327622 1.7785778544 -0.4115797436
O 1.7189683158 1.6455886558 0.3882970591
O -0.1514469998 2.6599194747 -0.3293900377
C -0.1791361805 3.5550177901 0.7980395021
C 0.6467201393 4.7998275855 0.5166813042
S -0.9740889401 0.1970503928 -1.754688038
P -1.4790349265 -0.5581367116 0.1759482116
S -1.5268822216 -2.4945200356 0.5306263718
O -0.9695887687 0.4378715133 1.3083005662
C -0.24048827 0.0220899119 2.4633037866
O -2.9929727909 0.0028187823 0.2075129098
C -3.997678251 -0.5279608087 -0.6547671384
H 4.6339763483 -1.8808263556 1.3004159874
H 3.0923202427 -1.3551734821 1.9909091437
H 3.7381741694 -2.951363574 2.3923675082
H 1.9034552773 -3.144924709 0.7123888434
H 3.4644792798 -3.6497344919 -0.0090176017
H 1.668161664 -0.6546896564 -2.7425730522
H 2.7803765874 0.3966538874 -1.8486431685
H -1.2352086801 3.7920565734 0.928590382
H 0.1980649068 3.0233130337 1.6756496936
H 1.6945427543 4.5348859555 0.3951160695
H 0.2941185718 5.2852574539 -0.388916644
H 0.5512934195 5.4859379843 1.3516484615
H 0.7909005516 0.363336248 2.3648636187
H -0.2616901239 -1.0649181056 2.5581470952
H -0.7237251646 0.4868001663 3.3203318383
H -4.0148449956 -1.6176992106 -0.5833055228
H -3.8056576773 -0.2290237621 -1.6864599219
H -4.937490635 -0.1097077707 -0.3033785209
*
