! pbe def2-sv(p) def2/J RI DEFGRID1 loosescf d4 GCP(DFT/SV(P)) printgap
%output
    printlevel normal
end
* xyz 0 1
C 3.2817565817 1.0429273354 3.1300709194
C 1.90418452 0.525059633 2.7750234144
O 1.6266930368 0.6738931696 1.3653295061
P 2.3577703057 -0.2053705337 0.2700039714
S 2.8496681222 -2.0244810271 0.8252279288
O 3.5699624008 0.730734443 -0.1512697958
C 4.7011497654 0.2403836336 -0.8909784819
C 4.3329221592 -0.1437061851 -2.3095995351
S 0.9731030515 -0.0339917491 -1.3185536099
C -0.1100536121 -1.3788501135 -0.7636128682
S -1.2024969682 -0.8896656882 0.5839505235
P -2.5308398417 0.2866529512 -0.6124003751
S -2.8067750067 -0.4241635161 -2.4176626031
O -1.9772582934 1.7583269857 -0.7297135679
C -2.0603259932 2.7989994694 0.2734127494
C -1.262156982 2.4734602156 1.5181912922
O -3.792702004 0.4914354484 0.3287638223
C -4.4826017145 -0.5578490817 1.0338849411
C -4.9708985069 -1.658897844 0.1166623359
H 3.4133291106 1.0071474679 4.2069015144
H 4.0432976787 0.4218055432 2.6599829207
H 3.4003853253 2.0659746482 2.783143289
H 1.1148509128 1.0995404999 3.2610596508
H 1.8070031754 -0.5334928303 3.035705387
H 5.4089288007 1.0700835481 -0.8687592418
H 5.116938338 -0.6203142404 -0.3570542368
H 3.6706659575 -1.0088413963 -2.3024365737
H 3.8238615889 0.6795362797 -2.8049514958
H 5.233533595 -0.3952223222 -2.8605374488
H 0.4988099532 -2.2083292554 -0.4019061326
H -0.7147253658 -1.670275507 -1.6239724369
H -1.6575715202 3.6715887624 -0.2435085979
H -3.1133713342 2.959634834 0.5115302433
H -0.2330589011 2.2413168203 1.2538256872
H -1.276014771 3.3330055724 2.1813079444
H -1.694370382 1.6182297021 2.0346352261
H -3.8070661778 -0.9600880027 1.793837958
H -5.3149940654 -0.038602552 1.5122998736
H -5.5587588442 -2.3697848323 0.6882561179
H -5.5815402449 -1.2451122879 -0.68226234
H -4.1253502314 -2.1773800361 -0.3328148735
*
