! pbe def2-sv(p) def2/J RI DEFGRID1 loosescf d4 GCP(DFT/SV(P)) printgap
%output
    printlevel normal
end
* xyz 0 1
C 0.4831515542 -2.4929523761 1.3531025962
C 1.7883869742 -1.8879414658 1.8282496299
O 2.1348653791 -0.6972035439 1.1045360903
P 2.4597653346 -0.7151097675 -0.457754415
S 3.3255907991 -2.3429569848 -1.1155982877
O 3.2806211372 0.6345795731 -0.6263332935
C 4.719294633 0.6625658828 -0.5206246482
C 5.1898860191 0.3687422052 0.8882594928
S 0.6791996775 -0.111698145 -1.4231041316
C 0.3694780328 1.425767067 -0.4986740657
S -0.4833307544 1.1670038527 1.075436308
P -2.3838767146 0.7527129026 0.26007424
S -2.8669737243 1.7688734518 -1.3528280619
O -3.347537426 0.8884283837 1.5174664056
C -3.6293448208 2.1471750461 2.162069701
C -4.8376976263 2.8230660828 1.5431800155
O -2.3668768779 -0.8185648763 0.0934714263
C -3.1077771581 -1.531976146 -0.9200716877
C -2.2263109434 -2.616179775 -1.5056199381
H -0.3309479961 -1.7770118621 1.439158013
H 0.5789865029 -2.7946472151 0.3095378116
H 0.2531465612 -3.3680692598 1.9525444385
H 2.6020735299 -2.6106607183 1.709484468
H 1.7273501135 -1.5565084376 2.8655549667
H 5.1310280987 -0.0665859952 -1.2253440239
H 4.9832279494 1.6730969703 -0.8354322262
H 6.2642947364 0.5129157207 0.944773837
H 4.6972862593 1.0294548514 1.5969106976
H 4.9582575721 -0.6633880053 1.1477166848
H -0.2609735662 2.0386006905 -1.1446422715
H 1.3140229037 1.9148529056 -0.2828566307
H -3.8148945305 1.8800453017 3.2040942034
H -2.745126545 2.7880661409 2.1021968916
H -5.0585035524 3.7330370468 2.0917243132
H -4.6408059775 3.0747939022 0.5035130525
H -5.6978918742 2.1606746194 1.5842176072
H -3.9877755826 -1.9547456836 -0.4310347064
H -3.426324768 -0.8216742158 -1.6907137707
H -1.3512733351 -2.176219043 -1.9785810055
H -1.9010589044 -3.2964459903 -0.7238977175
H -2.7922139355 -3.1679405187 -2.2491546353
*
