! pbe def2-sv(p) def2/J RI DEFGRID1 loosescf d4 GCP(DFT/SV(P)) printgap
%output
    printlevel normal
end
* xyz 0 1
C 4.3999060641 -1.6312417566 -0.8900355747
C 4.5808001588 -0.1516711862 -0.6198332899
O 3.5052250595 0.4070080574 0.1556257577
P 2.0136299106 0.5142072597 -0.3949930168
S 1.8735971113 0.9689893204 -2.2901457689
O 1.3996417996 1.6058295609 0.5642851925
C 1.4957176245 1.5414555096 2.007890308
C 2.6524173342 2.3779267874 2.5141883045
S 1.1718366777 -1.3463653696 0.2045480108
C 0.0071054063 -1.6360387882 -1.1656650255
S -1.6916833133 -1.8758986879 -0.6102173799
P -2.0323317579 0.0782905025 0.157166223
S -1.4686070775 1.5353465984 -1.0290412967
O -1.3146160546 0.1695637029 1.5614778119
C -1.7892771051 -0.4183073607 2.8018843262
C -1.749132312 -1.9319607717 2.7852342122
O -3.5661070959 0.0705947454 0.5674542538
C -4.6202983645 0.3970502685 -0.3558962373
C -4.7453960092 -0.6190821473 -1.4720333745
H 4.2066757412 -2.1666905691 0.0360310487
H 3.5637225002 -1.7844588935 -1.5704755306
H 5.3018142382 -2.0202365723 -1.3515631478
H 4.6483405358 0.4039650889 -1.5601059127
H 5.4649208748 0.0403486065 -0.0101593362
H 0.5374161931 1.93254647 2.3559517441
H 1.5986455993 0.4942815108 2.3073318979
H 2.5560375599 3.3989138513 2.1545920568
H 2.6399999569 2.3763944857 3.5996806379
H 3.5962715417 1.9697178215 2.1637220702
H 0.2919497378 -2.5594977948 -1.6633608659
H 0.0638935594 -0.7852757695 -1.8508980782
H -1.1025067202 -0.0098013685 3.5451779632
H -2.8005665765 -0.0525607629 2.9864402633
H -1.961181469 -2.297530688 3.7851584904
H -2.4936888499 -2.3275498837 2.0985569037
H -0.7659074416 -2.2815534296 2.4779211872
H -5.5130579343 0.4197100108 0.2708677057
H -4.4243812174 1.3935279201 -0.7636088511
H -5.6358691525 -0.4028437879 -2.0535508062
H -3.8767597818 -0.5622453191 -2.1262786472
H -4.8136967673 -1.6247098097 -1.065142943
*
