! r2scan-3c def2/J RI DEFGRID2 scfconv6 printgap
%output
    printlevel normal
end
* xyz 0 1
C 4.6020015378 0.0355842043 -1.8926926564
C 4.4448112577 1.0066129921 -0.7403185775
O 3.5807011452 0.4986057419 0.2903149827
P 2.0231244529 0.2766799981 0.0741806334
S 1.15137806 1.6792638717 -0.9802837067
O 1.4654704443 0.2306394897 1.5477561341
C 1.6399888319 -0.8375617977 2.512999959
C 3.0914664817 -1.1938248488 2.7457888357
S 1.8748874096 -1.6950648133 -0.7040033768
C 0.1413788536 -1.6412515383 -1.2014976299
S -1.0045002135 -1.7047612188 0.2230775804
P -2.0806164701 0.0808111505 -0.040942148
S -2.2697839765 0.7783562869 -1.8667699611
O -1.3696028344 0.998590691 1.0374787322
C -1.5335221077 2.4283221832 1.0715583059
C -2.9506569954 2.8345115509 1.4140709688
O -3.4601217596 -0.2306543595 0.6884434017
C -4.5989164986 -0.7694014732 -0.0040897723
C -4.3749193653 -2.1986923184 -0.4543577949
H 4.8858973776 -0.9471329035 -1.5252701068
H 3.6643734988 -0.0501595758 -2.4394789967
H 5.3677725191 0.4039385715 -2.56779795
H 4.0389562116 1.9598661536 -1.0937091562
H 5.3907690317 1.175164962 -0.2238076991
H 1.1720068932 -0.4326992317 3.4116116902
H 1.0731409723 -1.7068790302 2.1668491566
H 3.1491189577 -1.9172130385 3.5533323882
H 3.522232793 -1.6305991357 1.8473045952
H 3.6598427976 -0.3072297653 3.0142267076
H -0.0268707091 -2.5276332506 -1.8072262887
H -0.0587016562 -0.7287766601 -1.770048542
H -0.8188409007 2.7507795192 1.8307822626
H -1.232535824 2.8334602248 0.0991802737
H -3.2697748504 2.3445226609 2.330321281
H -2.9913504717 3.9116228766 1.5429783782
H -3.6237156988 2.5494624131 0.6063031685
H -5.4057122572 -0.6983774911 0.7265777819
H -4.8148660339 -0.1270696785 -0.8640158503
H -5.3026279147 -2.5981052723 -0.8513282873
H -3.6163557499 -2.2272294264 -1.2353856676
H -4.0438978323 -2.8111656147 0.3805002543
*
