! pbe def2-sv(p) def2/J RI DEFGRID1 loosescf d4 GCP(DFT/SV(P)) printgap
%output
    printlevel normal
end
* xyz 0 1
C 0.6337751476 -2.7297568707 1.7387595219
C 1.7559374899 -2.2915969987 0.8209200781
O 1.8849934305 -0.8547766842 0.9061451501
P 2.4557157697 0.0677402719 -0.2671667015
S 3.1652960995 -0.8800134863 -1.8201751247
O 3.5571630926 0.944080965 0.4498717233
C 3.4153162173 1.5440009954 1.7631946794
C 2.8781809152 2.957742523 1.6698595655
S 0.8983324068 1.4556218055 -0.6817724151
C 0.0747619498 0.4877625886 -1.9695877886
S -0.6644130551 -1.0353840231 -1.336358439
P -2.043331519 -0.0833416131 -0.0272963892
S -2.8734646308 1.5619823201 -0.7093328
O -1.2142749362 0.0974095773 1.3097323686
C -1.299091056 1.2708367438 2.1362542328
C -2.5315398216 1.2177402311 3.0145826693
O -2.9904012812 -1.2740746634 0.41981566
C -3.6617135479 -2.1919015924 -0.462340568
C -4.4934592764 -1.4930271752 -1.5179422019
H -0.3057378785 -2.276422075 1.4323363619
H 0.5417587655 -3.8097128466 1.6889466886
H 0.8478962118 -2.4321408421 2.7609990063
H 1.5606022851 -2.5733103833 -0.2180189858
H 2.7115695674 -2.7240234596 1.1277530083
H 2.7698498361 0.9087719329 2.3726518967
H 4.4304739616 1.5339160473 2.1636820589
H 2.8802666375 3.4029934577 2.6599003027
H 3.5040805363 3.5508993455 1.008862753
H 1.8621907146 2.9608960657 1.2799609317
H 0.8024548483 0.193707453 -2.7259176715
H -0.7030512026 1.1276393001 -2.3863262662
H -0.3789503636 1.2562575254 2.7221883195
H -1.3146148167 2.1587017241 1.4952587015
H -2.5527504518 2.0878661003 3.6628402095
H -3.4235577542 1.2173106162 2.3892428167
H -2.5261601554 0.3136455639 3.6169501993
H -2.9069512997 -2.8329074637 -0.926875196
H -4.2857707392 -2.7826382161 0.2106824257
H -3.8498847694 -0.9330609096 -2.1951833281
H -5.0469513424 -2.2320272056 -2.0883442955
H -5.1913380227 -0.7996503406 -1.0544589766
*
