! pbe def2-sv(p) def2/J RI DEFGRID1 loosescf d4 GCP(DFT/SV(P)) printgap
%output
    printlevel normal
end
* xyz 0 1
C 1.422297814 -0.9093323734 2.9037733834
C 2.0971654196 0.3636587991 2.4368839687
O 3.0510564505 0.1397993895 1.3836228813
P 2.735634663 -0.5752257283 -0.0025143287
S 2.5984763823 -2.5247786449 -0.0338079562
O 3.958919706 -0.1242105166 -0.8851595974
C 4.3417803602 1.2586302945 -1.0857475776
C 5.4706688059 1.643469087 -0.151364751
S 1.0504373017 0.5210854339 -0.7702730232
C -0.0425043354 -0.8685830631 -1.1517509422
S -1.306035061 -1.1374075625 0.1119301326
P -2.5436780644 0.5072666866 -0.4609408208
S -2.6793713001 0.8479313058 -2.3815410688
O -1.9528198489 1.7526512107 0.3027207313
C -1.6858461829 1.8046098561 1.7255134376
C -2.8928184446 2.2940979383 2.4989626252
O -3.916031772 0.2345443194 0.2931938373
C -4.9742012337 -0.550154928 -0.2855636311
C -4.5912693218 -2.0070281259 -0.4461205415
H 0.7971596192 -1.3252703458 2.1138719869
H 2.166977846 -1.6540683607 3.1740261038
H 0.8021187111 -0.6928020386 3.7677796793
H 2.6943877901 0.8110270177 3.2333646581
H 1.3584320614 1.0861204573 2.0776601418
H 4.6567034411 1.306253879 -2.1297910803
H 3.4647230319 1.8954361245 -0.9388465041
H 5.7766155238 2.6628209118 -0.3650860004
H 5.1462936657 1.5733604919 0.8831445777
H 6.3156706346 0.9765016188 -0.2981166937
H 0.5510734778 -1.7836202517 -1.2088022716
H -0.5352328749 -0.6455418151 -2.0986623854
H -1.3792260034 0.8103564118 2.0633676138
H -0.8520368789 2.5044994258 1.808647876
H -3.7083878399 1.5808821171 2.4201668494
H -2.6188530894 2.4113875058 3.5428395855
H -3.2242949438 3.2511375577 2.1054876115
H -5.8018390924 -0.4270406496 0.4143795042
H -5.2374100195 -0.11264751 -1.2534620661
H -5.4635585409 -2.5743194549 -0.7545793127
H -3.8198816642 -2.1095093996 -1.2079896512
H -4.2135968323 -2.4064791754 0.4918541379
*
