! pbe def2-sv(p) def2/J RI DEFGRID1 loosescf d4 GCP(DFT/SV(P)) printgap
%output
    printlevel normal
end
* xyz 0 1
C 2.2425147743 -2.6980214104 0.6387392068
C 3.2899163311 -1.8249110787 -0.0343334333
O 2.6743083349 -0.6646238231 -0.6262609084
C 2.1159265282 -0.7958833496 -1.8209758584
O 2.1920266092 -1.7895377304 -2.5038714205
C 1.3620562543 0.460453692 -2.2157384642
C 0.2597206476 0.7419950805 -1.1951790783
H -0.3063185382 1.632276415 -1.4834873457
C 0.826761032 0.9619485715 0.1984171999
O 0.5045987614 0.2827547895 1.1529342787
O 1.6513462683 1.9693336728 0.2191278981
C 2.3168598368 2.3143982235 1.4527276325
C 3.8141532512 2.3591434624 1.2058016879
S -0.8987405194 -0.6697480026 -1.1152739943
P -2.0931313143 0.0095868741 0.5077690987
S -2.1235339752 1.9392768297 0.8336562083
O -3.5292076233 -0.5662406488 0.0727407838
C -4.24380193 -0.0188795748 -1.0388011914
O -1.854856599 -0.8728707763 1.7944520721
C -1.8792416231 -2.3127933104 1.7585848809
H 1.6521351926 -2.0988836955 1.329680363
H 1.5799031162 -3.127316576 -0.110256125
H 2.7310019792 -3.4990370984 1.1829667796
H 3.8157102732 -2.3776394202 -0.8177701174
H 3.9975484735 -1.4224950938 0.690735247
H 0.9303786062 0.3076995903 -3.2040091075
H 2.0477944358 1.3086074844 -2.2276568575
H 1.9292600681 3.293313922 1.7442849128
H 2.0490521978 1.5747798641 2.2116538732
H 4.1645459482 1.3905541124 0.8593664684
H 4.0454196743 3.1066172438 0.4531127399
H 4.3205669785 2.6137525397 2.1308116424
H -4.2751804328 1.0693605988 -0.9636413096
H -5.2466018881 -0.4331981784 -0.9753206638
H -3.7629404791 -0.3153733923 -1.9709645636
H -1.5681010151 -2.6252522137 2.75194962
H -1.1819075852 -2.6796418455 1.0050301824
H -2.8868831009 -2.6596202518 1.5366808187
*
