! pbe def2-sv(p) def2/J RI DEFGRID1 loosescf d4 GCP(DFT/SV(P)) printgap
%output
    printlevel normal
end
* xyz 0 1
C 3.2516503483 -1.8461946821 -2.7127141043
C 1.9360709265 -1.3048026357 -2.1931986799
O 2.1417653381 -0.0838045006 -1.4376676497
P 2.2554693433 -0.0391771284 0.1272139306
S 2.5632331985 1.7509539939 0.8473720182
O 3.4399149993 -1.0699690811 0.3952228779
C 3.9332151762 -1.3047855369 1.7291338986
C 5.261078877 -2.0256346847 1.6145652998
S 0.5810439996 -1.095516298 0.9300331684
C -0.2010203556 0.2320723855 1.906262078
S -1.9952765002 0.2354165677 1.7604892665
P -2.2123101269 0.8743825827 -0.2641647394
S -0.6036747396 1.5989605312 -1.1250163247
O -3.3823131038 1.9190744772 -0.2553502108
C -4.5560261425 1.8973505007 0.5985898914
C -5.3070459631 0.5861630554 0.5344277074
O -2.8564757355 -0.362721142 -1.029154033
C -2.0790031581 -1.4985194847 -1.4473880223
C -2.8893060438 -2.2646659335 -2.4730145597
H 3.7542924529 -1.0895969546 -3.3088937436
H 3.8969424905 -2.12578365 -1.8846302189
H 3.0555326518 -2.7181728106 -3.3287118496
H 1.4296716254 -2.0351868763 -1.5549489847
H 1.2770569858 -1.0051000687 -3.0109242888
H 4.0417982288 -0.3390274316 2.2339100842
H 3.1950727812 -1.9096594783 2.2634684603
H 5.1288980534 -2.9705388517 1.0956736713
H 5.9699809006 -1.4148455333 1.0626324449
H 5.6499118564 -2.2136578673 2.6098243003
H 0.2117526771 1.187216448 1.5719161693
H 0.0097714641 0.0595093043 2.9588424218
H -4.2340182726 2.1133060983 1.6201656382
H -5.1526753243 2.7258247631 0.2139862678
H -4.7020183026 -0.2138364973 0.9566170285
H -6.2230627402 0.6762352448 1.1101286782
H -5.5506264965 0.3420710483 -0.4960259579
H -1.1350247819 -1.1368628869 -1.8697988846
H -1.8613810274 -2.1122631372 -0.5678876169
H -3.1019474667 -1.6303384113 -3.328872085
H -2.3234567353 -3.1309998211 -2.7989744734
H -3.8274139681 -2.5911101109 -2.0345380755
*
