! pbe def2-sv(p) def2/J RI DEFGRID1 loosescf d4 GCP(DFT/SV(P)) printgap
%output
    printlevel normal
end
* xyz 0 1
C 1.3779582317 -2.3291571872 1.2477498441
C 2.8572416438 -2.0174562219 1.3351118404
O 3.143802389 -0.6315430728 1.0844102633
P 2.8716531119 0.0797949135 -0.3143920432
S 3.1691331915 -1.0132686058 -1.9102628728
O 3.8715121921 1.2988481345 -0.256025243
C 4.2715961 2.0080017093 0.941645263
C 3.1008334289 2.6448288863 1.6590815501
S 0.927337441 0.9741974959 -0.16551912
C 0.1378407791 0.3127789579 -1.6483385178
S -0.9656976972 -1.0936655612 -1.3199617497
P -2.3184155124 -0.0400973146 -0.0874153583
S -2.7181900737 1.8074804685 -0.6245692998
O -1.6716426605 -0.2434527327 1.3397879245
C -1.9117855842 0.6784972908 2.4238815086
C -3.3399472743 0.5915704818 2.9181887552
O -3.574576633 -1.0071306057 -0.010965202
C -4.5268938805 -1.0982260181 -1.0893613788
C -5.7890601885 -1.7344741998 -0.5429501279
H 1.0392903838 -2.2436742834 0.2158486595
H 1.2030979669 -3.3461655015 1.5835570654
H 0.8008567238 -1.6441036623 1.8647591358
H 3.4165132609 -2.6224245641 0.6151540439
H 3.2451877861 -2.1821847693 2.3416477668
H 4.7939608329 1.3058095207 1.5942260082
H 4.9696194642 2.7570124875 0.564805815
H 3.469821071 3.2115385305 2.5082816132
H 2.5592734347 3.3103442311 0.9916197939
H 2.4163498699 1.8764627191 2.0149348101
H 0.9044625175 -0.0470494163 -2.3372367448
H -0.4475159623 1.1206537835 -2.0850248096
H -1.1974085444 0.3764001649 3.1904860418
H -1.6785167462 1.6901134729 2.0767299639
H -3.5826246859 -0.4332269052 3.1861824155
H -3.4636383733 1.2341162242 3.7842200436
H -4.0196720337 0.9203228526 2.1328202683
H -4.717925133 -0.0900451595 -1.4730053344
H -4.0856454412 -1.7051547922 -1.8847655672
H -6.2161200127 -1.1111579666 0.2374324145
H -6.5089913256 -1.8447499059 -1.3471888413
H -5.559441438 -2.711378557 -0.1278085448
*
