! r2scan-3c def2/J RI DEFGRID2 scfconv6 printgap
%output
    printlevel normal
end
* xyz 0 1
C 2.7087145569 -0.9665586777 3.0725297081
C 1.843008525 0.2091560149 2.6725830934
O 1.3052360689 0.068409264 1.3385700132
P 2.1691587564 -0.1352200026 0.0307620461
S 2.8240134989 -1.9401427651 -0.3858558765
O 3.2761303702 0.9921312753 0.1964748322
C 4.4004383715 1.1015612354 -0.7026862052
C 5.6271679915 0.4440196765 -0.1012882195
S 0.8648184503 0.660760759 -1.4384640829
C 0.0065672772 -0.8860312755 -1.8293651619
S -0.889585824 -1.5674470471 -0.4085934562
P -2.213860372 0.0651443631 -0.1530403184
S -2.8298503288 0.9193129142 -1.8103834941
O -1.4354947782 0.9946773161 0.8606899215
C -1.5632097643 2.4299552525 0.8413515968
C -2.8902651498 2.8638573368 1.4267926352
O -3.3191351685 -0.5400077437 0.8132276865
C -4.2604427275 -1.5475668232 0.3904875182
C -5.5314513579 -0.9177922238 -0.1463231921
H 2.154506476 -1.8969595634 2.9693759287
H 3.5888333545 -1.0177528462 2.4325956334
H 3.0253082316 -0.8481299959 4.1041143703
H 2.406720713 1.1437692434 2.7148719856
H 0.9497350375 0.2811560568 3.2958517601
H 4.1433166585 0.6436185228 -1.6612066243
H 4.5455036352 2.1747155137 -0.8375463712
H 5.4601494035 -0.6250831506 0.012238887
H 6.4744554299 0.5996071944 -0.7611305158
H 5.8457198857 0.8749756285 0.8717535059
H 0.7308259054 -1.6427918519 -2.1300132331
H -0.6930873923 -0.6571259536 -2.6327610673
H -0.717306536 2.7805480523 1.4341652461
H -1.4591705586 2.7786538159 -0.1917527372
H -3.0090326787 2.4600213774 2.428581161
H -2.9341817361 3.9477355724 1.4621844157
H -3.7016929521 2.4946211897 0.8005041266
H -3.7894301004 -2.1882577709 -0.3608885361
H -4.4560755929 -2.1307760177 1.2923467884
H -5.3157404729 -0.3292948687 -1.0352956986
H -6.2366761957 -1.7014472229 -0.4036130718
H -5.9731115428 -0.2691191261 0.6049868126
*
