! r2scan-3c def2/J RI DEFGRID2 scfconv6 printgap
%output
    printlevel normal
end
* xyz 0 1
C 2.6933621762 -3.5219192226 -0.237563998
C 3.2617933755 -2.112059962 -0.2264150911
O 2.3072008126 -1.1735029031 -0.7590486092
C 2.2518897861 -1.0113579407 -2.0710862694
O 2.9927049446 -1.5595692936 -2.8556064444
C 1.1620512305 -0.0475073294 -2.4914977836
C 0.3183387792 0.4511443032 -1.327471319
H -0.3972913211 1.2039355506 -1.6816034393
C 1.1871777455 1.1236937694 -0.2791907991
O 2.1152582833 1.8426316227 -0.5702614758
O 0.7965429218 0.8520398508 0.9481088456
C 1.4959312854 1.4704414571 2.0463362014
C 0.8314855555 2.7783900069 2.4396299241
S -0.661893159 -0.9039227393 -0.6002326779
P -1.961263142 0.2878549971 0.5916520575
S -2.163894508 2.1615033177 0.0588778499
O -3.3215245283 -0.5598465694 0.5408659938
C -4.0855595433 -0.662919022 -0.6646424679
O -1.5928820183 0.114221375 2.1169412684
C -1.4205879815 -1.1827762983 2.7197475284
H 3.3905903975 -4.1930792359 0.252621936
H 1.740151186 -3.545130927 0.2836486559
H 2.5422534989 -3.8533550691 -1.2620188518
H 4.1760361751 -2.0545352451 -0.8238132632
H 3.4508744616 -1.7638235384 0.7894226906
H 0.5402206752 -0.5437957867 -3.2378702443
H 1.6505737474 0.805195421 -2.9698625386
H 1.4419825609 0.7401590981 2.854053498
H 2.5327526948 1.6336856819 1.7395502581
H 1.3317477532 3.1899368216 3.3096965122
H 0.8924649107 3.4931146949 1.6215118846
H -0.2175600785 2.6088631427 2.6720750163
H -4.2517991278 0.3280974038 -1.090007172
H -5.0312001526 -1.1139764047 -0.3750929864
H -3.5620767958 -1.2940345979 -1.382618268
H -2.3508347133 -1.7450325747 2.6679128687
H -1.1479733588 -0.9829852962 3.7527353564
H -0.6267607367 -1.7251790512 2.2066437835
*
