! pbe def2-sv(p) def2/J RI DEFGRID1 loosescf d4 GCP(DFT/SV(P)) printgap
%output
    printlevel normal
end
* xyz 0 1
C 1.3197983936 1.942247226 -1.8177033956
C 2.2807546782 0.783088233 -1.9832291213
O 2.1429362406 -0.1915507106 -0.9387574692
P 2.4445093912 0.1636931943 0.5912867609
S 3.8858746134 1.4692225275 0.8253240624
O 2.6562531173 -1.2884310833 1.1985510065
C 3.8727613418 -2.0335899848 0.9540892895
C 4.8358317741 -1.8732227004 2.113247651
S 0.5994189595 0.5814832882 1.4965206907
C -0.2022252168 -1.0537773627 1.2583260942
S -1.9902722339 -0.8931589339 1.2717010147
P -2.1931564233 -0.1966470844 -0.7379313342
S -1.0325819482 -1.0834095267 -2.0386308308
O -1.992832589 1.36277404 -0.7156481633
C -2.7829252591 2.2439917306 0.1272555063
C -1.8851428129 3.3550045662 0.6295738815
O -3.7547372563 -0.3288417058 -0.9899210548
C -4.3885310515 -1.6182599861 -1.1266355604
C -5.7953697492 -1.3870405473 -1.6390218558
H 1.4412658629 2.630916528 -2.6473919923
H 0.2920721065 1.5859621562 -1.7969979104
H 1.5312902455 2.4671693845 -0.8855314128
H 3.3143451356 1.1435200317 -1.9812855496
H 2.0771809863 0.2196852029 -2.8951835806
H 3.5442937034 -3.0688204708 0.8460841136
H 4.3214968 -1.693955274 0.0167285612
H 5.1473163313 -0.8345394816 2.2021348758
H 4.3574756733 -2.1759372104 3.0404876871
H 5.7103669593 -2.4920392342 1.9395286711
H 0.0724524406 -1.7026162074 2.0850175593
H 0.1145601222 -1.4622170561 0.2964794962
H -3.5944646601 2.6282052842 -0.4924548452
H -3.1989290003 1.6628002146 0.9547543957
H -2.4745999271 4.0457345934 1.2236035542
H -1.0861682851 2.9462157028 1.2440294822
H -1.4441948549 3.8870213804 -0.2085532625
H -3.7996918179 -2.2232458957 -1.8234925991
H -4.3928801824 -2.102069852 -0.1463255006
H -5.76416811 -0.8908419136 -2.6049092308
H -6.2980112117 -2.34287555 -1.7433871365
H -6.3467144923 -0.764485608 -0.940629187
*
