! pbe def2-sv(p) def2/J RI DEFGRID1 loosescf d4 GCP(DFT/SV(P)) printgap
%output
    printlevel normal
end
* xyz 0 1
C 1.4698614563 -0.354671813 -3.241447473
C 2.3433573585 -1.276477369 -2.4138115155
O 3.0657451946 -0.5541069562 -1.3986234895
P 2.4497074493 -0.1130427464 -0.0101599108
S 1.2076351614 1.418630606 0.0097000177
O 3.8420788329 0.17363148 0.6821624673
C 3.9558983357 0.9973490811 1.8534597697
C 3.3106919999 0.3555938374 3.0662693294
S 1.7485458656 -1.9369166964 0.8359624348
C 0.0136539055 -1.539197278 1.1514194233
S -0.9628232057 -1.3024819143 -0.3698972819
P -2.0961107551 0.4210041895 0.1962198201
S -1.8375734587 1.0618779896 2.024596632
O -3.586555825 -0.049163267 -0.1266831352
C -4.2525743978 -1.0355769211 0.685303063
C -5.7274972972 -1.0039481665 0.3395299162
O -1.8942147992 1.5189454508 -0.9061752217
C -2.1488824455 1.2695979498 -2.3151788919
C -1.4524148476 2.3573884025 -3.1046747869
H 2.0712324493 0.4311046062 -3.6905455371
H 0.979022007 -0.9273332384 -4.0214065624
H 0.714317719 0.1056968824 -2.6088153478
H 3.1285580795 -1.7321955622 -3.0194837656
H 1.7425593642 -2.0610628246 -1.9413210838
H 5.0320640052 1.1160380416 1.9860134759
H 3.4986118991 1.9703399534 1.6447937754
H 3.6759476376 -0.660208831 3.1950223812
H 3.54503689 0.9391331503 3.9508943987
H 2.227663665 0.3312337717 2.9440764526
H -0.0711766973 -0.6270928607 1.7483224854
H -0.3834243722 -2.3963884606 1.6892980814
H -3.8121430655 -2.0121853312 0.4645454319
H -4.0808919386 -0.7919536384 1.7390954156
H -6.1379754187 -0.0202131123 0.5493023548
H -5.8671658085 -1.2270899296 -0.714098498
H -6.2487309093 -1.7445247949 0.9369793464
H -1.7649887974 0.2762660913 -2.5670388801
H -3.2297315376 1.2872676487 -2.4658191811
H -0.3912829554 2.3682521799 -2.868515602
H -1.585163626 2.171383262 -4.1652993397
H -1.869033571 3.3274272374 -2.8496662965
*
