! pbe def2-sv(p) def2/J RI DEFGRID1 loosescf d4 GCP(DFT/SV(P)) printgap
%output
    printlevel normal
end
* xyz 0 1
C 4.010674317 -2.6493908022 0.7077954022
C 2.5242843634 -2.7291868854 0.4009210048
O 2.1919677704 -1.9348327605 -0.754203864
C 1.9883679898 -0.6475647195 -0.5999124262
O 2.0349112528 -0.0506962915 0.4577145194
C 1.6791672274 0.0494398993 -1.9110039467
C 0.426136971 0.9161242134 -1.7559153078
H 0.3706426987 1.6414458877 -2.5703706669
C 0.4299129979 1.6508064761 -0.4313486706
O -0.4258158931 1.4531613738 0.4204175435
O 1.3666152931 2.5396785251 -0.3456584553
C 1.5249025 3.2455516821 0.9063286696
C 2.6204548183 4.2751420265 0.7209974143
S -1.1136444265 -0.0635735172 -1.8644058499
P -1.7365661028 -0.4675208927 0.1181024673
S -0.7074905647 -1.2531339224 1.6039884485
O -2.9098503462 0.5287312525 0.5693456106
C -2.8607768573 1.4344454473 1.6693964555
O -2.6750243996 -1.6086248923 -0.5421372484
C -3.530566121 -2.4336829741 0.2465685644
H 4.5881985291 -2.9455762758 -0.1635807105
H 4.280281318 -1.6339970396 0.9889235626
H 4.2383752225 -3.314429017 1.5340466131
H 1.9256311916 -2.3802411069 1.2484306581
H 2.2249724961 -3.7403947747 0.125540141
H 1.536283918 -0.6852632684 -2.7010093564
H 2.5275891185 0.6942896727 -2.1493653174
H 0.5674442904 3.7054208422 1.1677701436
H 1.7783660385 2.5031997811 1.6693792641
H 3.5511390303 3.7836651338 0.4558271931
H 2.3501576294 4.9710297272 -0.0672656458
H 2.7565471298 4.8197131814 1.649215421
H -2.1127330158 1.1079521336 2.3937700689
H -3.8535876354 1.4215998207 2.1147275024
H -2.6128164737 2.4302956664 1.3073687972
H -4.4164556173 -1.8742611631 0.5463591009
H -2.9976022633 -2.7862455929 1.1329718906
H -3.8035113522 -3.271372884 -0.390527139
*
