! r2scan-3c def2/J RI DEFGRID2 scfconv6 printgap
%output
    printlevel normal
end
* xyz 0 1
C 5.5729723466 -0.5184291908 -0.7328948117
C 4.8037790418 -1.5922278289 -1.4844010992
O 3.5685482819 -1.9099983775 -0.8129126733
C 2.4919829812 -1.2083591732 -1.1053290192
O 2.4547040582 -0.297642947 -1.9020717685
C 1.2862952755 -1.7305005325 -0.3453560844
C 0.2232370174 -0.6502079217 -0.2311502542
H 0.1250915758 -0.1279013101 -1.1940084862
C 0.5278120947 0.4116651154 0.8032058381
O -0.3553523023 0.9950202275 1.4032502664
O 1.8027453234 0.6335819484 0.9617205248
C 2.1871947459 1.6787201981 1.8850891575
C 3.6692587069 1.9396086419 1.7151550247
S -1.407050945 -1.3526266882 0.1816616192
P -2.5643239817 0.4275221174 0.055010515
S -1.9036979755 1.8490357948 -1.1189773104
O -3.956333026 -0.1898793481 -0.4680993984
C -4.0945565197 -0.6994867167 -1.7963642658
O -3.0374189144 0.8928450622 1.4872711688
C -3.6635248742 -0.0095321799 2.4204831469
H 6.5236659454 -0.3458092931 -1.2263131959
H 5.0047599151 0.4083253384 -0.7263837374
H 5.7527643022 -0.8338610825 0.2909288426
H 5.3518457672 -2.5343878185 -1.5049975899
H 4.5727695098 -1.2619003746 -2.5010536249
H 1.6026689345 -2.0958396693 0.6303733564
H 0.8790483376 -2.5723580109 -0.9100729997
H 1.5848755117 2.5658124673 1.6668258337
H 1.9470120629 1.336165298 2.895892249
H 3.9751981194 2.7155783532 2.4087115103
H 4.233506529 1.034290032 1.9165420231
H 3.875190304 2.2681410421 0.7004531942
H -3.5753410929 -1.6539570253 -1.8830186947
H -3.687398984 0.0137496096 -2.5152921537
H -5.1625897824 -0.8274625303 -1.9522236898
H -3.7391479225 0.5529429908 3.3473903886
H -3.043358312 -0.8957637183 2.5572263289
H -4.6480846684 -0.2940655194 2.0536545822
*
