! pbe def2-sv(p) def2/J RI DEFGRID1 loosescf d4 GCP(DFT/SV(P)) printgap
%output
    printlevel normal
end
* xyz 0 1
C 1.8302690246 -2.8772961414 0.899685591
C 1.9271773711 -1.5793716534 1.6749685136
O 2.9077252641 -0.6797704407 1.1305528669
P 2.7804962289 0.0812777113 -0.2622803667
S 3.0134706644 -0.9551184277 -1.9095810319
O 3.9350319985 1.1420904317 -0.1423606271
C 4.3401483849 1.8293672503 1.0672478221
C 3.2517096269 2.7263073411 1.6167374269
S 0.924401601 1.1548655924 -0.1499285143
C -0.0172917264 0.2304367468 -1.382481399
S -1.0247628255 -1.082170788 -0.6590855922
P -2.6775349311 0.1622878576 -0.1294153179
S -3.1235368682 1.5676301318 -1.4172639299
O -2.3427090282 0.8207317199 1.2600991873
C -1.9884721705 0.0567156695 2.442381508
C -0.9790701824 0.8610107403 3.2357838312
O -3.7960327484 -0.889468007 0.2798504093
C -4.2143848785 -2.0170306817 -0.512225839
C -4.6337908755 -1.6255944938 -1.9134682172
H 1.1653024585 -3.5575795224 1.4216062296
H 1.4342772338 -2.6979941376 -0.0985617646
H 2.811899134 -3.3341507263 0.8047113102
H 2.2755857291 -1.7509144191 2.6950006901
H 0.9593647959 -1.0700252883 1.6956247981
H 4.640798645 1.0797067935 1.8010788012
H 5.2092921597 2.4046351775 0.7447726794
H 2.4020671412 2.1331195924 1.9497798521
H 3.6437601477 3.2848214747 2.4609715349
H 2.9109055771 3.4226081385 0.8545123765
H 0.6816978172 -0.2378162437 -2.0799429303
H -0.6781488333 0.9353056191 -1.8904307134
H -2.9075908637 -0.1066021233 3.0074252423
H -1.5817110928 -0.9098503873 2.1292600433
H -0.696463888 0.3056057431 4.1240902448
H -0.0970726987 1.0568756725 2.630806848
H -1.4106690808 1.8140631598 3.5265674639
H -3.3914942713 -2.7365183142 -0.5417774954
H -5.0507792641 -2.4306530096 0.0538387268
H -5.4046221601 -0.8591465808 -1.8795017241
H -3.7820940551 -1.2295849223 -2.4652777886
H -5.0162717656 -2.4979005171 -2.4335795364
*
