! pbe def2-sv(p) def2/J RI DEFGRID1 loosescf d4 GCP(DFT/SV(P)) printgap
%output
    printlevel normal
end
* xyz 0 1
C 4.4578229314 2.3836581966 -0.4546402454
C 4.028663197 1.1268278989 -1.1873303002
O 3.7012215516 0.0675933174 -0.2685173724
P 2.2372959556 -0.1476736056 0.3135444685
S 1.5659853998 1.2782982865 1.4834008864
O 2.366388043 -1.5734873865 0.9785920452
C 2.532701469 -1.7313887918 2.404813383
C 3.9284825345 -1.335077667 2.8347239802
S 1.1209516265 -0.6030841723 -1.4477562448
C -0.048915559 -1.7892410431 -0.7248472033
S -1.0729445039 -1.0944424689 0.5872516964
P -2.3398960646 0.0728918883 -0.682736215
S -2.6433810518 -0.673059526 -2.4642549319
O -1.6937224371 1.5023988107 -0.8207203421
C -1.5051308672 2.42213339 0.281030726
C -2.6263901257 3.4385352065 0.320556107
O -3.5919285421 0.3586556926 0.2502109711
C -4.3250444942 -0.6388186816 0.9870360893
C -4.816440188 -1.7728687841 0.1126727554
H 4.7401035083 3.1404643772 -1.1794379436
H 3.6431639003 2.764130191 0.1575027829
H 5.3061622552 2.1681726566 0.1889177224
H 4.8447985521 0.7205055251 -1.7880543925
H 3.1663150805 1.3191636455 -1.8343454486
H 1.7797559535 -1.121715413 2.9146046733
H 2.3348506351 -2.7894696073 2.579146235
H 4.6692213936 -1.9017730276 2.2771860241
H 4.0811827617 -0.2736513524 2.6425649816
H 4.0481039724 -1.5244701247 3.896687111
H 0.4966767767 -2.6277459187 -0.3011182891
H -0.690670373 -2.1019191126 -1.5512740468
H -1.4396413243 1.859486589 1.2162321301
H -0.5411665124 2.8965465354 0.0868496286
H -2.4286010557 4.1503703729 1.1156834363
H -2.6829890709 3.9640671629 -0.628736171
H -3.5765242556 2.9442163081 0.5051419423
H -3.6790474966 -1.0159289012 1.7848286647
H -5.1567435113 -0.0784870727 1.417767201
H -5.3965144064 -1.3849748011 -0.7212870378
H -3.9726657421 -2.3324312845 -0.2884870265
H -5.4358705311 -2.4401897264 0.7031532839
*
