! pbe def2-sv(p) def2/J RI DEFGRID1 loosescf d4 GCP(DFT/SV(P)) printgap
%output
    printlevel normal
end
* xyz 0 1
C 1.4721017914 -0.8863402289 -3.1799384998
C 2.6407933651 -1.3271557877 -2.3214918622
O 2.2260112424 -1.4931648511 -0.9447283718
P 2.396732861 -0.3557319184 0.1403609748
S 1.7584265681 1.4495461324 -0.3099549124
O 3.9652416549 -0.4235789796 0.4064417391
C 4.6780296446 0.6094965232 1.1065540257
C 4.3097392694 0.6557477137 2.5755027777
S 1.5123060783 -1.3497389575 1.7753185593
C -0.1350530391 -0.6266421031 1.6313522586
S -0.9243784554 -1.0568791685 0.0488591471
P -2.4089873476 0.4814446602 0.1294584921
S -1.881966671 2.163711367 0.9767468443
O -3.6079417358 -0.1364008539 0.9462829579
C -4.2904602585 -1.3598991787 0.5761047488
C -5.5644490557 -1.0530135819 -0.1843297803
O -2.9826486914 0.5010518435 -1.3506795145
C -2.2058655671 0.6638695322 -2.5508961439
C -1.4258939728 1.9614344248 -2.5731038195
H 1.7835693442 -0.8450678783 -4.2186105856
H 0.6528123164 -1.5923756439 -3.073867007
H 1.1327157251 0.099861385 -2.870981154
H 3.4612418632 -0.6061392764 -2.3670901828
H 3.0025239695 -2.3141610996 -2.6141786903
H 5.727297045 0.3491973503 0.9613311915
H 4.4610296995 1.5686778033 0.6248413586
H 4.422115525 -0.3281062822 3.0240421816
H 4.954480299 1.3633565798 3.0868343096
H 3.274750399 0.9768028001 2.6900760028
H -0.0726018369 0.4641414567 1.6898455218
H -0.7199125644 -1.0290507083 2.4554226834
H -3.6115226385 -1.9800178113 -0.0162096721
H -4.5058028905 -1.8512323431 1.5266488915
H -6.0844001007 -1.9818983247 -0.3969044317
H -6.2060719038 -0.4100268291 0.4117822713
H -5.3343851287 -0.5466509168 -1.117699164
H -1.5354261655 -0.1944899471 -2.6455241448
H -2.9541875821 0.6389848198 -3.3452223985
H -0.9500616733 2.081095314 -3.5413355253
H -2.087546464 2.8048638934 -2.3909754075
H -0.6571396832 1.9619800409 -1.800558569
*
