! pbe def2-sv(p) def2/J RI DEFGRID1 loosescf d4 GCP(DFT/SV(P)) printgap
%output
    printlevel normal
end
* xyz 0 1
C 3.398803849 -1.3022158906 -2.7550915435
C 2.0025720142 -1.0559691137 -2.2223243464
O 1.964852881 0.1275478647 -1.3845732054
P 2.1076037849 0.0872365583 0.1797476565
S 2.1417419865 1.8472342731 1.0266720528
O 3.4509789304 -0.7492640027 0.3584203634
C 4.0021325049 -0.9937474934 1.6671651284
C 5.4164868988 -1.5071829826 1.4878487689
S 0.6455466898 -1.2945664212 0.9229571374
C -0.2702184209 -0.2113138742 2.0604837715
S -2.0675377979 -0.3131351939 1.8589693482
P -2.2132834198 0.2256395787 -0.1677034807
S -0.937581694 1.5321504926 -0.909424411
O -3.7407379096 0.6214349061 -0.354645828
C -4.22176035 1.965098224 -0.1824843191
C -4.1128552023 2.4319829301 1.2546817489
O -2.1629178142 -1.2190933944 -0.8122562222
C -1.9260490791 -1.4390367285 -2.2163830741
C -3.1635780079 -1.1613923801 -3.044346706
H 3.3712293735 -2.1461116241 -3.4373327588
H 3.7529259557 -0.4221954924 -3.2849759717
H 4.0824623783 -1.5190452319 -1.9394236583
H 1.6376164285 -1.9100007274 -1.6441620777
H 1.3059112843 -0.83187133 -3.0329498392
H 3.982656021 -0.056294348 2.2326444539
H 3.3701895784 -1.7307448811 2.1709433237
H 5.8501645641 -1.700921737 2.4632764991
H 5.4089804735 -2.4262695862 0.909128591
H 6.0186850787 -0.7667964502 0.9688740497
H 0.0717587061 0.8155767441 1.8997467727
H -0.0731373686 -0.53207791 3.0804250042
H -3.6497754248 2.6239004321 -0.8440702233
H -5.2601691654 1.915091707 -0.5127877699
H -3.0646677925 2.5358938269 1.5338486105
H -4.5995380847 3.3965899173 1.357796608
H -4.5834263214 1.7143998231 1.9221064878
H -1.096880594 -0.7958286992 -2.5311986481
H -1.6273099908 -2.4868920125 -2.2721679212
H -4.0061039708 -1.7261892124 -2.6549918622
H -3.4058271686 -0.1006803578 -3.0100238626
H -2.9783026028 -1.449999695 -4.074330448
*
