! pbe def2-sv(p) def2/J RI DEFGRID1 loosescf d4 GCP(DFT/SV(P)) printgap
%output
    printlevel normal
end
* xyz 0 1
C 0.5234469309 -1.2389343172 3.2317645124
C 1.7001011263 -0.571157678 2.5513847899
O 1.9650852944 -1.2906361203 1.3179229287
P 2.6456422432 -0.6281077921 0.0629854598
S 2.9129557283 -1.919741281 -1.3808419541
O 3.9578291633 0.0120247114 0.6935078112
C 5.0936062863 0.4109843297 -0.0950127237
C 4.7688812582 1.5481346426 -1.0416485315
S 1.4318886418 1.0594549753 -0.4165159911
C 0.1749984356 0.1260887045 -1.3210495761
S -0.9894325589 -0.7366584671 -0.2395907194
P -2.7571717887 0.4389337648 -0.5551106619
S -2.5955232915 1.82072186 -1.9339096019
O -3.2338974809 0.95364601 0.8734317602
C -2.8059851334 2.2081670908 1.4315197003
C -1.363404696 2.1648793739 1.8913855556
O -3.8747662575 -0.6155530265 -0.9114442887
C -4.5937171416 -1.4337164071 0.0434836659
C -3.6759662122 -2.3232155622 0.8541074575
H 0.3113316313 -0.7255567929 4.1641445385
H -0.3489008364 -1.202735192 2.5841663852
H 0.754743981 -2.2798180694 3.4373049698
H 2.603878769 -0.6231664969 3.1608534239
H 1.4878595717 0.474379612 2.3086327027
H 5.8336405234 0.7059647954 0.6503340368
H 5.4507901012 -0.4615806617 -0.6503455315
H 4.0833060881 1.2055658825 -1.8155460121
H 4.3066031441 2.3712513945 -0.5023951769
H 5.6832809171 1.8935182619 -1.5132599832
H 0.6784983004 -0.6224608475 -1.9342624097
H -0.378459651 0.8384578665 -1.9381202528
H -2.9498628106 2.9907854434 0.6800299841
H -3.4889840479 2.3662059518 2.2676072043
H -1.1288010128 3.0842178457 2.4180464317
H -1.2047080526 1.3193309074 2.5554693257
H -0.6977733201 2.0781845508 1.0334439809
H -5.1690856895 -0.7714032982 0.6930692405
H -5.2676730488 -2.0161320766 -0.5864589775
H -3.0141104847 -1.7160263775 1.4690339564
H -4.274667847 -2.9584605044 1.4994060356
H -3.070322184 -2.9459559267 0.2003652343
*
