! pbe def2-sv(p) def2/J RI DEFGRID1 loosescf d4 GCP(DFT/SV(P)) printgap
%output
    printlevel normal
end
* xyz 0 1
C 1.6185805335 -1.1124745981 -2.8490016749
C 2.5794378285 -0.1740841964 -2.1465993243
O 1.8949145635 0.5355791207 -1.0829388975
P 2.1175624981 0.2597553729 0.4497505396
S 0.967265372 1.4291616422 1.5167816297
O 3.6892847829 0.4552078384 0.5700162341
C 4.5138558066 -0.0227658956 1.6509132572
C 4.0343117365 0.4462858018 3.0080646709
S 1.8705221712 -1.8218872368 0.809195044
C 0.1128708256 -1.8052600549 1.2220505829
S -0.9889323738 -1.9321998132 -0.2267796666
P -1.940842757 -0.0417871632 -0.3641925343
S -1.1596949706 1.3832016582 -1.4685706226
O -2.1989083995 0.2485914116 1.1666744437
C -2.5348723573 1.5645491445 1.6504634279
C -3.8984855194 2.0057473006 1.1665429965
O -3.381723955 -0.500605172 -0.8636457331
C -3.7007982245 -0.6860845954 -2.2560794701
C -4.5201219943 0.4826558813 -2.7688808073
H 2.1070852922 -1.5349682093 -3.7209379946
H 1.3081177837 -1.9195152338 -2.1884494845
H 0.7357481129 -0.560747371 -3.1646582543
H 2.92869435 0.6103767554 -2.8195715076
H 3.4337153126 -0.7112455745 -1.7284907469
H 4.5359924586 -1.1148465322 1.6041270933
H 5.5000230284 0.3806087048 1.4144323498
H 4.7405662053 0.1290210539 3.7684122827
H 3.9471514849 1.530222536 3.026200466
H 3.0569194683 0.0205885455 3.2303075871
H -0.117476603 -0.8896111592 1.7695387663
H -0.0696632821 -2.6900850026 1.8254873925
H -2.496411111 1.4590178391 2.7355380648
H -1.7548869341 2.2625181325 1.3285307615
H -4.6457272128 1.259349094 1.4229317475
H -4.1540909826 2.9531764417 1.6304083263
H -3.8811964139 2.1329538252 0.0849632058
H -2.7761181583 -0.7904976316 -2.8303361151
H -4.2643812309 -1.619786411 -2.2972405124
H -5.4059812311 0.6160664369 -2.154545443
H -3.9256958784 1.3935706485 -2.7389908332
H -4.8176803599 0.2884474308 -3.7941387658
*
