! pbe def2-sv(p) def2/J RI DEFGRID1 loosescf d4 GCP(DFT/SV(P)) printgap
%output
    printlevel normal
end
* xyz 0 1
C 2.4011738343 1.1051548002 -0.0014999403
C 1.1511229801 0.2817837983 0.001659059
C 1.1919759546 -1.1082428971 0.0011173543
C -0.0025404438 -1.8108608292 -0.0001458291
C -1.1926533242 -1.1072166666 -0.0010236516
C -1.1454658969 0.2858152935 -0.0007785025
N 0.0013769221 0.9512044406 0.0005628012
C -2.402050329 1.0995967087 0.0006573499
H 2.3804939692 1.8087110562 0.8270815651
H 3.2810434694 0.4738944013 0.0784644078
H 2.4563061103 1.6834805961 -0.9211247235
H 2.1384983366 -1.626133725 0.0017992935
H -0.0025217099 -2.8913732511 -0.000535733
H -2.1433781205 -1.6173231261 -0.0018767312
H -2.9721179525 0.9030036496 0.9065585133
H -2.1542856353 2.1550806837 -0.0445750493
H -3.021796802 0.8352315346 -0.8534439966
*
