! pbe def2-sv(p) def2/J RI DEFGRID1 loosescf d4 GCP(DFT/SV(P)) printgap
%output
    printlevel normal
end
* xyz 0 1
C 2.9472606463 -1.141609581 -2.5252243445
C 1.8610546874 -0.4005943269 -1.7706823959
O 1.6245599243 -1.0450872187 -0.5118169947
P 1.9373257167 -0.4076635045 0.919906402
S 3.0530415087 1.2074881592 0.8474967111
O 2.4493036261 -1.6662909279 1.7377137757
C 3.5451751245 -2.503743241 1.3135785989
C 4.8902205586 -1.868588571 1.6070463957
S 0.1291015111 -0.2567156227 1.982210392
C -0.2966467696 1.4400463757 1.4985284397
S -0.3427050468 1.7207449584 -0.2986377386
P -1.9756149068 0.4948653238 -0.8522720271
S -2.6373456669 0.6927916315 -2.6839661799
O -3.0650856954 0.6918026221 0.2949967833
C -4.1415457202 1.6348764631 0.1570144536
C -3.6584619021 3.0684311356 0.251208637
O -1.3542652521 -0.9203941656 -0.5020559329
C -1.9129738462 -2.1529667062 -0.9981098557
C -3.2493932939 -2.4653558576 -0.359313062
H 2.677420872 -2.1875617982 -2.6431910955
H 3.0677216173 -0.6900726229 -3.5045469406
H 3.8887236058 -1.0720149157 -1.9844368289
H 0.9107326204 -0.4201071029 -2.3114997322
H 2.1511434196 0.6411174713 -1.5938075498
H 3.4066152532 -3.4208636158 1.8892075576
H 3.4337059454 -2.7187829658 0.2474135859
H 4.9674623783 -1.6278655348 2.6640118937
H 5.6809987651 -2.5615390218 1.337290599
H 5.0112576591 -0.9497796074 1.0362597279
H 0.4636788514 2.1283192182 1.8665074606
H -1.269043056 1.6501424407 1.9357806687
H -4.6299594508 1.4628049245 -0.807454789
H -4.8224245273 1.3817659852 0.9706913495
H -2.9650350265 3.2796394341 -0.5628403598
H -4.5084360979 3.7383436031 0.1690892755
H -3.155097051 3.2470323043 1.197867964
H -2.0103260392 -2.0743089991 -2.0861072418
H -1.1576740995 -2.8985785759 -0.7441099267
H -3.5689445106 -3.4574824295 -0.6627764579
H -3.1634525364 -2.4266777525 0.7236810311
H -3.9939812689 -1.7395057342 -0.6823091958
*
