! pbe def2-sv(p) def2/J RI DEFGRID1 loosescf d4 GCP(DFT/SV(P)) printgap
%output
    printlevel normal
end
* xyz 0 1
C 2.7562548401 0.8240561439 -2.983497349
C 3.5725264045 1.223215812 -1.7708808866
O 3.4910423788 0.2419579931 -0.7241516724
P 2.1519880983 -0.0464545424 0.0850678497
S 1.2159258425 1.6232908387 0.5522154857
O 2.6823829847 -0.895234818 1.3052670524
C 2.9126071444 -0.3732239889 2.6333906352
C 2.2808404799 -1.3109556621 3.6424406976
S 1.2942369532 -1.6089219546 -1.043636267
C 0.1632558653 -2.3362364205 0.1932758881
S -0.6422777696 -1.1288526724 1.2770010762
P -1.8494546835 -0.0974035769 -0.1192861951
S -1.2050211759 0.5648349467 -1.8528865077
O -2.5222806037 0.9990310806 0.8065534691
C -2.1452906605 2.3867870587 0.8564283577
C -3.3935448884 3.2089169377 1.104502164
O -2.9676454825 -1.2146347501 -0.2361430084
C -3.9416083735 -1.2300810808 -1.2987946989
C -4.9159073495 -0.0766161253 -1.1867887333
H 1.6933847769 0.8195751286 -2.7366805579
H 2.9227936331 1.5375920159 -3.783969877
H 3.0381680357 -0.1709950576 -3.3189595892
H 3.2275173478 2.1835837026 -1.3734116001
H 4.6377282127 1.2754659378 -1.999475412
H 3.9949714857 -0.3130098789 2.7620485321
H 2.4815360263 0.631604118 2.6983446419
H 2.4839087317 -0.9429364357 4.6427330409
H 1.2048319126 -1.3564297757 3.4882247812
H 2.6971898224 -2.3082011421 3.5347810497
H 0.7328961403 -2.9909983234 0.8490716571
H -0.5846535123 -2.8935403963 -0.3671522275
H -1.4167388612 2.508041062 1.6620426029
H -1.6624882107 2.6579260129 -0.0888744712
H -3.8778316609 2.8761951409 2.017893829
H -3.1132346898 4.2522948683 1.2039646649
H -4.088298717 3.102033914 0.2759054328
H -3.4105726954 -1.193803593 -2.2554738772
H -4.4384347622 -2.1941113908 -1.1822836329
H -4.3925181374 0.8633863852 -1.3576294386
H -5.6944423496 -0.1874448966 -1.9350542485
H -5.3625631818 -0.0569033391 -0.1961289108
*
