! pbe def2-sv(p) def2/J RI DEFGRID1 loosescf d4 GCP(DFT/SV(P)) printgap
%output
    printlevel normal
end
* xyz 0 1
C 3.2284641772 -1.0174108998 -3.1950480111
C 1.9087472819 -0.7917858969 -2.4861318408
O 2.0291778841 0.2473436273 -1.4843806388
P 2.2659549774 -0.0291429345 0.0455906313
S 2.4191697187 1.6454213774 1.0412814729
O 3.5544315348 -0.9646988119 -0.0131478073
C 4.0406386155 -1.7887910655 1.0611126102
C 4.3771354596 -0.9962722746 2.3071032517
S 0.7544379737 -1.4065385508 0.6979675154
C 0.011833296 -0.4297774848 2.0374614685
S -1.8001525534 -0.4345469707 2.0024162928
P -2.1128714927 0.2635001134 0.0432704981
S -0.8483332645 1.5874275499 -0.6854809713
O -3.6243604423 0.7480718089 0.0821668063
C -4.0008258053 2.0141156751 0.6591660301
C -5.4058477187 2.3375521392 0.1928166299
O -2.2230615531 -1.1025245755 -0.7422048324
C -2.0856986014 -1.1850255426 -2.1752195827
C -3.2886012474 -0.6012880016 -2.8851956535
H 3.578910578 -0.0845314487 -3.6280284353
H 3.9764014815 -1.3810603905 -2.4962353445
H 3.0847829543 -1.7489566473 -3.9840492617
H 1.549298176 -1.7077034721 -2.0073800152
H 1.1519840007 -0.4133031657 -3.1770517267
H 3.2859280483 -2.5505831519 1.2768703078
H 4.9306693377 -2.2592289341 0.6392879684
H 5.0768154359 -0.1983982279 2.0705480583
H 3.4782760604 -0.5457370861 2.7247302437
H 4.8202942062 -1.6574156269 3.0447986209
H 0.3887980896 0.5951921758 1.9614642719
H 0.2833839101 -0.8776255596 2.9904782906
H -3.9531011739 1.9221565695 1.7477642878
H -3.2816762633 2.7736582677 0.3334481257
H -6.0839055752 1.5429387377 0.4897787438
H -5.7242788866 3.2713115503 0.6444143915
H -5.4298477453 2.43605281 -0.8886974286
H -1.1721149345 -0.6552032064 -2.464799015
H -1.9749378061 -2.2531291877 -2.3660835444
H -3.3418255434 0.4702860309 -2.6972726049
H -3.1949433286 -0.7702059321 -3.9534195114
H -4.2001018793 -1.0670892959 -2.5210275772
*
