! wb97x-v def2-tzvp def2/J RIJCOSX DEFGRID2 scfconv7 GCP(DFT/TZ) printgap
%output
    printlevel normal
end
* xyz 0 1
C -1.4801258699941067 -0.0017540040903424392 -0.23042646907206424
C -0.7279207774311038 -1.2514948386757423 0.2300602513739878
C 0.7225877744045471 -1.1863256351510443 -0.2224154914534517
O 1.376050133504973 0.0016897730876617766 0.2628758853004522
C 0.7197312416960087 1.1881428191342778 -0.22237197636558148
C -0.7309452357563891 1.2497944898064945 0.23008560590167548
H -2.505617572052076 -0.002996322743269583 0.15402493736089565
H -1.542944240526831 -0.0018197845396125067 -1.3272478871986642
H -0.7593767518776172 -1.3254801037767407 1.324692272876504
H -1.186988761944138 -2.1605580623059257 -0.17582110324236225
H 1.3033939045907403 -2.0285124201967415 0.16542672020761368
H 0.7778870394220652 -1.2022190292282964 -1.3235788235411088
H 1.2984913124403326 2.031717600998728 0.16551749281964942
H 0.7750106276508658 1.2042303478386633 -1.3235323005135093
H -0.7625934143147031 1.3236821857476468 1.3247183736445285
H -1.192207424163215 2.157748758259217 -0.17578785925568943
*
