! pbe def2-sv(p) def2/J RI DEFGRID1 loosescf d4 GCP(DFT/SV(P)) printgap
%output
    printlevel normal
end
* xyz 0 1
C 4.0963839575 -1.6602199875 -2.2899270399
C 4.3480353772 -1.6727808571 -0.7960871006
O 3.1253792309 -1.5930456983 -0.0428071931
P 2.2237453809 -0.282805844 -0.0129929574
S 3.236040624 1.3985453173 0.0550665545
O 1.2846147054 -0.5918913593 1.2240396053
C 1.6430787788 -0.2402908705 2.5814045162
C 0.3865047788 0.1874657421 3.3111559279
S 0.8388170031 -0.5381386277 -1.5831762246
C 0.2811660093 1.1882447076 -1.6443048531
S -0.557163131 1.7191610678 -0.1373294117
P -2.2919518749 0.4762648818 -0.3395757217
S -2.7996799097 -0.0032847814 -2.1631795294
O -3.4069002311 1.3170531132 0.3837781983
C -3.2676167183 2.0121858136 1.6469317432
C -3.4942698974 1.0854877744 2.8227638218
O -2.0546928993 -0.7553084119 0.6438583336
C -1.6567455685 -2.0730146131 0.2323114058
C -2.6342659664 -3.0791156613 0.8075076117
H 3.7013551692 -0.6912877648 -2.5930799558
H 5.0298862111 -1.8384560437 -2.8139361267
H 3.3772628595 -2.4298465318 -2.559165685
H 4.986891811 -0.8325058445 -0.5059247271
H 4.7964874703 -2.6119457634 -0.4697195659
H 2.0941844342 -1.1243339922 3.0373054232
H 2.3802424053 0.5692823349 2.5517293675
H -0.3480396885 -0.6126354762 3.2836966259
H 0.6329433679 0.4152861305 4.3429638719
H -0.0342466352 1.0718383055 2.8389011398
H -0.4014511256 1.2586220613 -2.4907734853
H 1.1412830858 1.8461034848 -1.7647539332
H -2.2759756515 2.4717964071 1.6845772101
H -4.0300440542 2.7916084692 1.598304192
H -2.7341976949 0.3099388061 2.8436621506
H -3.4436275675 1.6609992437 3.7417344077
H -4.4720449213 0.6181434954 2.7447520494
H -1.6461500209 -2.1210448296 -0.8618743201
H -0.643317792 -2.2334551603 0.6092644905
H -3.6291348882 -2.8980548457 0.4082508375
H -2.3165066787 -4.0795581974 0.5323495833
H -2.6677882964 -2.9964466579 1.8900059504
*
