! pbe def2-sv(p) def2/J RI DEFGRID1 loosescf d4 GCP(DFT/SV(P)) printgap
%output
    printlevel normal
end
* xyz 0 1
C 1.4896851292 -3.7550925798 0.4167736312
C 2.4164225574 -2.5542716383 0.4467493428
O 2.119859909 -1.722074939 -0.6896084169
C 2.1715732112 -0.4129630109 -0.5778808027
O 2.4613899203 0.1969299511 0.4300572287
C 1.7968110118 0.266377352 -1.8841979915
C 0.4076643583 0.8982790652 -1.7553829245
H 0.1935059187 1.4980632842 -2.6442503909
C 0.3114388889 1.7774552709 -0.5271167195
O -0.557673448 1.6252922269 0.315515699
O 1.2245042606 2.6978869032 -0.4930829631
C 1.2899605075 3.5468985035 0.6742236255
C 2.4977812243 4.4478531754 0.5213630666
S -0.9137990766 -0.354957354 -1.6911249737
P -1.4721755219 -0.6132662148 0.3602927114
S -0.3108163255 -0.742099673 1.936046453
O -2.8553238801 0.1787100517 0.541813484
C -3.0769173444 1.3143887827 1.3739035318
O -2.0551337723 -2.0955066445 0.1829741287
C -3.0849280195 -2.4622256733 -0.749748832
H 0.4588387261 -3.4333725589 0.5530188269
H 1.5779991961 -4.2694524284 -0.5353540377
H 1.7536005509 -4.4303722449 1.2234721692
H 3.4634967886 -2.856076768 0.3573680414
H 2.2820163131 -1.9650997579 1.3592575531
H 1.7905703653 -0.4687285866 -2.6869135483
H 2.5217072011 1.0566688036 -2.0826265055
H 0.3577175783 4.11603982 0.7360004725
H 1.3679697638 2.9009741611 1.5542819479
H 3.4011242029 3.8477633958 0.4687175018
H 2.4100593619 5.0396932328 -0.3845274837
H 2.5590117172 5.10892894 1.3791451109
H -2.3498439857 1.3362060624 2.186603733
H -4.0849296591 1.2029505739 1.7681901334
H -2.9909243173 2.2225891241 0.7798313178
H -3.3754766902 -3.4711864922 -0.467405309
H -2.6884957688 -2.4467074433 -1.7646491177
H -3.9293212887 -1.7808127267 -0.6650212568
*
