! pbe def2-sv(p) def2/J RI DEFGRID1 loosescf d4 GCP(DFT/SV(P)) printgap
%output
    printlevel normal
end
* xyz 0 1
C 3.8197319225 -0.3713055085 -2.3380490617
C 2.5194785819 0.3870373919 -2.1842183996
O 1.7923624561 -0.0585370838 -1.0241761841
P 2.2647958221 0.2732978665 0.4467511834
S 3.2738002584 1.9328753018 0.6923588039
O 2.9950898338 -1.0953359683 0.8305471009
C 3.5819565326 -1.2944103066 2.1313362907
C 5.0506918873 -0.9179672418 2.1304257932
S 0.4523288904 0.1934541799 1.507814028
C -0.2321833863 -1.3734839598 0.8284697849
S -2.0262589568 -1.3367394681 0.8622143462
P -2.2896454538 0.0921650058 -0.7042813972
S -1.1623208962 -0.2280139233 -2.2739816275
O -1.9962028107 1.5452536009 -0.1659629288
C -2.8305301412 2.3315489642 0.7198097983
C -2.9923245763 1.706101751 2.0897266316
O -3.8638582838 0.1289999374 -0.8992313671
C -4.7095637034 -1.0310645535 -1.0206857731
C -4.2904245534 -1.9445174703 -2.1528350138
H 4.474267113 -0.1454675549 -1.4967022566
H 3.629479563 -1.4409523507 -2.3620737524
H 4.306502275 -0.0678062798 -3.259332761
H 1.8274436776 0.2015101764 -3.0080537983
H 2.7030484367 1.4621108723 -2.0888789465
H 3.0280391229 -0.7049411164 2.8697415225
H 3.4468900168 -2.3584599678 2.3350673866
H 5.1675852302 0.1425149897 1.9180760126
H 5.4749885425 -1.1317796145 3.1060556227
H 5.5818211144 -1.488628595 1.373799178
H 0.0793815287 -2.2029521879 1.4572120966
H 0.1093855679 -1.4834007613 -0.2009505586
H -2.2970643502 3.2818943242 0.7768631825
H -3.7976004944 2.4750917284 0.2344187992
H -3.5010707433 2.4128468768 2.7379740261
H -3.582126983 0.7941709198 2.0299885609
H -2.0183770915 1.4708481767 2.5146843737
H -4.6938968713 -1.5656032863 -0.0670831755
H -5.7001146326 -0.6071665574 -1.1948825395
H -3.30366027 -2.3599879752 -1.9540799049
H -5.0048120887 -2.7561696524 -2.2443723782
H -4.247523595 -1.3940323529 -3.0897224321
*
