! r2scan-3c def2/J RI DEFGRID2 scfconv6 printgap
%output
    printlevel normal
end
* xyz 0 1
C 4.6562092564 -1.373298131 -0.9001908977
C 4.6165192261 0.0920722341 -0.5177541723
O 3.4623097661 0.4127728977 0.2778778552
P 1.9819580386 0.3908902408 -0.3106012301
S 1.8697340946 1.0532092513 -2.1583948685
O 1.2195305307 1.1991697554 0.8161841965
C 1.314900248 2.6370676783 0.8989175487
C 0.5002722174 3.0797005479 2.095241296
S 1.2939755538 -1.5507109664 0.0749224292
C 0.0526390683 -1.7232420314 -1.2535899554
S -1.6186427945 -1.9994605109 -0.6290877915
P -1.9817022116 -0.0646450363 0.178723407
S -1.5056772605 1.4599404428 -0.950928753
O -1.2583328815 -0.0403323224 1.577567993
C -1.5176145379 -1.0228177666 2.6152935403
C -0.3204007935 -1.0469114064 3.5416597657
O -3.5105407903 -0.138279204 0.6139767423
C -4.5987714336 0.1717042463 -0.2745902052
C -4.7166499165 -0.820204067 -1.4133349526
H 4.549813246 -1.9978987861 -0.0169627413
H 3.8447199451 -1.5975802054 -1.591112174
H 5.6017821397 -1.590738026 -1.3862808979
H 4.6033907319 0.7224618576 -1.4127213118
H 5.4575347258 0.3668861123 0.1202322013
H 2.3684828152 2.9112362211 1.000950944
H 0.9211459759 3.0590114597 -0.0324484451
H -0.5295282025 2.7522264803 1.9741209527
H 0.9059978226 2.642786886 3.0029371794
H 0.5278602027 4.1621107072 2.1658576908
H 0.3030208261 -2.6072502957 -1.8342321608
H 0.078982582 -0.8230135122 -1.8740680575
H -2.427422503 -0.7175131133 3.135007989
H -1.6787521818 -1.9968846465 2.1441022671
H -0.1642783023 -0.0633515947 3.9751097988
H -0.4992582613 -1.7667984559 4.33367887
H 0.573081688 -1.3320480722 2.9918305535
H -5.4752298515 0.1459553811 0.3745722217
H -4.4501715096 1.1850251385 -0.6602797467
H -4.7353308011 -1.8372240005 -1.0298996609
H -5.6311672963 -0.6241934873 -1.9638622243
H -3.8702126958 -0.7147565586 -2.0900724308
*
