! pbe def2-sv(p) def2/J RI DEFGRID1 loosescf d4 GCP(DFT/SV(P)) printgap
%output
    printlevel normal
end
* xyz 0 1
C 4.871445784 0.7736272257 -2.0020536099
C 4.1486181186 -0.5540972911 -2.1115447606
O 3.407804648 -0.8648200402 -0.9169590139
P 2.0664126402 -0.08241426 -0.5155168551
S 1.0114075572 0.5058976048 -2.0499385292
O 2.5159221282 1.1348594049 0.390440867
C 3.4505574341 1.0330458665 1.4909067194
C 2.7333698797 0.8178763929 2.8086251431
S 1.2634311745 -1.5829504601 0.7360233691
C -0.1512002406 -2.1090793872 -0.2859722879
S -1.7385403774 -1.9229015925 0.5648408771
P -2.0030809769 0.1633875365 0.4747444339
S -0.6509733138 1.3853221428 1.182408021
O -3.3674492132 0.3974043015 1.2454235369
C -4.5924412768 -0.3107316968 0.9309922845
C -4.8584679589 -1.3942904073 1.9563230037
O -2.3032180239 0.2925408534 -1.0936099279
C -2.2703920229 1.559109474 -1.772760084
C -3.4810139626 2.4053504046 -1.4372699821
H 4.1471747332 1.579272951 -1.8813887828
H 5.5449118513 0.7729333155 -1.1487916262
H 5.4416856816 0.9470877886 -2.9092728507
H 4.8439273614 -1.3883324711 -2.213761364
H 3.4527532438 -0.5429521438 -2.9564090555
H 4.1556871419 0.2232442039 1.2851342982
H 3.9680356108 1.9940984311 1.4794504275
H 1.9264662052 1.5402286248 2.9097836037
H 2.3078514309 -0.1816374272 2.8612442426
H 3.4390734883 0.9476367649 3.6229090419
H -0.0483390461 -3.1728236954 -0.4829126611
H -0.1582033749 -1.5273004473 -1.2112133989
H -5.3676704355 0.4572721201 0.959617423
H -4.5178317228 -0.7260137407 -0.0770258586
H -4.8686776836 -0.9648190793 2.9541253017
H -5.8228677765 -1.8475352534 1.750048899
H -4.0867031595 -2.1594537808 1.9107329271
H -1.3451473245 2.0781266433 -1.5019297276
H -2.2320854763 1.2924890032 -2.8301409545
H -4.3954784916 1.8675000537 -1.6735134474
H -3.4745358698 2.6545546236 -0.3765629487
H -3.443815073 3.3235359795 -2.014982599
*
