! r2scan-3c def2/J RI DEFGRID2 scfconv6 printgap
%output
    printlevel normal
end
%cpcm
    smd true
    smdsolvent "water"
end
* xyz 0 1
C 0.1728546507 0.3817296226 -0.5731720067
H 0.1936094423 0.3693457381 -1.666328183
C 1.2244638956 -0.5766048056 -0.02316439
F 2.4536461799 -0.2267492156 -0.4247830909
F 1.2442068293 -0.6191960587 1.3068857376
F 1.022202326 -1.8239027591 -0.4578737962
Cl 0.5342122608 2.0232259705 0.0118772755
Br -1.5717814031 -0.2382640607 0.0045210019
*
