! r2scan-3c def2/J RI DEFGRID2 scfconv6 printgap
%output
    printlevel normal
end
%cpcm
    smd true
    smdsolvent "water"
end
* xyz 0 1
C 2.0058058957 3.2547034766 -0.1197370434
C 1.6816084283 2.0708134248 0.7676344442
O 2.259652799 0.9025117426 0.153070437
P 2.3160059876 -0.4888859819 0.9077216353
S 2.8495868041 -0.4318145413 2.789588351
O 3.3093567214 -1.1938087064 -0.1066722342
C 4.1014165281 -2.3278032788 0.2913422359
C 3.2582982793 -3.5750360152 0.4691821015
S 0.4173299228 -1.3890180877 0.5455960899
C 0.3412984298 -1.1101520856 -1.249321154
S -0.2394031338 0.5447213058 -1.7127366525
P -2.0883833692 0.4527947021 -0.698661042
S -3.0179272241 -1.2789563973 -0.6956114193
O -2.8785842291 1.7134021287 -1.2512703327
C -3.0883283143 2.0317276381 -2.6399650133
C -3.6630325344 0.8754338952 -3.4316002939
O -1.6897972087 0.9883779914 0.7456329236
C -2.3986749023 0.5931658978 1.93298086
C -3.7433532417 1.2836616138 2.015399583
H 1.5835385479 3.0969661409 -1.1085425182
H 1.5824578861 4.1534683948 0.3161984884
H 3.0821832228 3.3676327416 -0.2091190516
H 0.5994471813 1.9298765165 0.856575165
H 2.1064207264 2.1829049033 1.7706992199
H 4.8244382364 -2.4399117956 -0.5178006328
H 4.6205838331 -2.0804260893 1.2225700082
H 3.9058468908 -4.4154289519 0.6979032863
H 2.5583417283 -3.4357004001 1.2928689002
H 2.6969209013 -3.7912223517 -0.4362685774
H -0.356342382 -1.853195675 -1.6333246021
H 1.332557618 -1.2241909101 -1.6820701727
H -3.7798068977 2.8755911187 -2.6070123761
H -2.1318718219 2.3522349893 -3.0622137775
H -4.578142319 0.5143035851 -2.9681456687
H -3.8783705724 1.2036212742 -4.4433998016
H -2.9494155623 0.0534657994 -3.4694954468
H -2.5167344113 -0.4959191077 1.9245736764
H -1.7375278997 0.8806344787 2.7522518346
H -4.2350652627 1.0105629581 2.9435923315
H -3.6149395151 2.3618672529 1.9734581652
H -4.3640731934 0.9706774985 1.1762654095
*
