! pbe def2-sv(p) def2/J RI DEFGRID1 loosescf d4 GCP(DFT/SV(P)) printgap
%output
    printlevel normal
end
* xyz 0 1
C 1.3726192708 -0.0015770816 0.003059097
N -0.0728039862 -1.19633e-05 0.0053474306
O -0.6477034987 -1.070449828 -0.0016130095
O -0.6450342254 1.0718752453 -0.0016168162
H 1.7323900507 -0.9124234291 0.4756022604
H 1.7342717012 0.8955990713 0.4999202744
H 1.7088513705 0.0131571266 -1.0350166972
*
