! pbe def2-sv(p) def2/J RI DEFGRID1 loosescf d4 GCP(DFT/SV(P)) printgap
%output
    printlevel normal
end
* xyz 0 1
C 5.1840146903 -0.8802220816 -1.4349173125
C 4.6571563279 -0.3392426035 -0.1212418929
O 3.5723119138 0.5957688248 -0.3482216991
P 2.043954189 0.2129698944 -0.1868272706
S 0.9191198808 1.7907633711 -0.442497067
O 1.9118024186 -0.5460610589 1.2154634939
C 1.510465215 0.1100471289 2.4313300223
C 2.5536740194 1.1035112286 2.9008733087
S 1.7600227782 -1.430380516 -1.4752613352
C -0.0451711225 -1.4223074085 -1.5639717739
S -0.8603613953 -1.6354382068 0.0573036562
P -2.2000514058 -0.0134528877 0.0058725662
S -2.4527237799 0.9333548977 -1.6979199638
O -1.6745386509 0.8261058876 1.2425503996
C -2.2912272148 2.0931031594 1.5736529478
C -1.3632921269 2.8434757788 2.5054893041
O -3.5601948587 -0.5788571652 0.6163012438
C -4.5970737939 -1.1472668805 -0.2013675956
C -4.1585561995 -2.436489867 -0.8653384934
H 4.4260973338 -1.4816011287 -1.9322533534
H 5.4643481376 -0.058671923 -2.0883213586
H 6.0558345299 -1.4964926166 -1.2391493115
H 5.4170622966 0.2501742753 0.3950871612
H 4.3046363109 -1.1442580061 0.5278101981
H 0.5506323984 0.6044534344 2.25782402
H 1.3780077317 -0.7107065559 3.1380517137
H 3.5061997373 0.6056796748 3.0637360557
H 2.6850880947 1.8804402567 2.1472751241
H 2.2243794517 1.5629143114 3.8275882979
H -0.3044117757 -2.2689657634 -2.1950944378
H -0.3926182227 -0.4828217376 -2.0035418268
H -2.4528647291 2.650518975 0.6444121922
H -3.2560318529 1.8845591706 2.0428082539
H -0.4146672554 3.0292323098 2.0074886179
H -1.8185456286 3.7930049352 2.7673040973
H -1.1890548696 2.2640725516 3.4075864325
H -5.4196606103 -1.3100492839 0.4961480866
H -4.8849494023 -0.4068227769 -0.9544667076
H -3.7652117674 -3.1290471705 -0.1255653523
H -5.0073029752 -2.8874885558 -1.369185775
H -3.3830421083 -2.2258831952 -1.6010271378
*
