! pbe def2-sv(p) def2/J RI DEFGRID1 loosescf d4 GCP(DFT/SV(P)) printgap
%output
    printlevel normal
end
* xyz 0 1
C 1.885157041 -0.8320238215 -2.6636710493
C 2.9672324403 0.1237271498 -2.209604941
O 2.7104375298 0.6769161939 -0.8959960122
P 2.6081504583 -0.1394183808 0.4518013864
S 3.0882007877 0.9801937619 1.9856538225
O 3.5368046251 -1.397281267 0.1782097996
C 4.0804291638 -2.1985073734 1.2449558403
C 3.006799106 -2.9543840682 1.9996599344
S 0.6311071906 -0.9126773006 0.5432840242
C -0.1157781544 0.6494128573 1.1172063929
S -1.8698600279 0.4561910189 1.4572255567
P -2.5833321074 0.5240607694 -0.5600718797
S -1.298413362 1.2108515479 -1.8813568763
O -3.9838404773 1.2443912514 -0.451106513
C -4.2520167529 2.4358897913 0.3093715211
C -3.3591520841 3.5942412648 -0.088122976
O -3.1829443398 -0.8925968159 -0.9215472359
C -2.4112629381 -1.9861829052 -1.4502863595
C -2.1354743417 -3.0118263888 -0.368308063
H 0.9160197376 -0.3374785836 -2.6435522412
H 2.0976352079 -1.1481572595 -3.6800304967
H 1.8552982508 -1.7064883784 -2.0167534996
H 3.0103650869 1.0087645763 -2.8462103033
H 3.9409835291 -0.3691559554 -2.1845964498
H 4.7675272464 -2.8745629139 0.734074588
H 4.6360175653 -1.5411854494 1.9207039027
H 3.4764555242 -3.6336916032 2.7037412606
H 2.3775760649 -2.2572086789 2.5507527699
H 2.3847950922 -3.5205004522 1.311119583
H 0.0214852284 1.4011712931 0.3361857885
H 0.3668298573 0.9519793143 2.0459701001
H -5.2997426359 2.6483587649 0.0896855208
H -4.136669971 2.2023298913 1.3713972791
H -3.4233297906 3.7716061592 -1.1592904461
H -3.6680831833 4.4888310772 0.4430223338
H -2.3217215445 3.3754856641 0.1638055204
H -3.0306703493 -2.4069103008 -2.2448779075
H -1.4818163244 -1.6000886443 -1.8825026469
H -3.0701929373 -3.3317122224 0.0830348036
H -1.6356845716 -3.8676998599 -0.8092763374
H -1.4956306162 -2.5891922451 0.4035714121
*
