! pbe def2-sv(p) def2/J RI DEFGRID1 loosescf d4 GCP(DFT/SV(P)) printgap
%output
    printlevel normal
end
* xyz 0 1
C 4.3114437373 -1.8760277115 -1.0673794823
C 4.6201001396 -0.584952124 -0.3367200188
O 3.5486138216 -0.1777399862 0.5301716236
P 2.1248430099 0.2752159301 -0.0181293965
S 2.1962725625 1.3229363987 -1.6780153823
O 1.5280225117 0.9676417797 1.2770549205
C 1.691517073 2.3763890745 1.5407722212
C 3.1438292357 2.7635997882 1.7177183239
S 1.0055667997 -1.5158741958 -0.029637796
C 0.092932305 -1.3149654524 -1.5990663056
S -1.6881680895 -1.5771074576 -1.4393110799
P -2.1308111892 -0.0344695372 -0.0782238653
S -1.2239146899 1.6823249574 -0.3079304806
O -1.8401825975 -0.8144346614 1.2892603215
C -1.5222563705 -0.1437501755 2.5208531862
C -2.7033026395 0.6427683648 3.0521475125
O -3.7005747224 0.1554140948 -0.1678766128
C -4.6463733199 -0.9212313372 0.054601171
C -5.1477107358 -1.4781644751 -1.2623608184
H 4.0086258301 -2.6469021751 -0.3633241778
H 3.5049272578 -1.7126030575 -1.7812783661
H 5.1952876904 -2.2035591357 -1.6052451736
H 4.8098653503 0.2220110056 -1.0516996381
H 5.4718215165 -0.6954502576 0.3356081206
H 1.22941976 2.9327410705 0.7182441533
H 1.1159779674 2.5386920546 2.4535160004
H 3.2011912197 3.8053721948 2.0172562023
H 3.6082334216 2.1390331996 2.4765159586
H 3.6795317263 2.6368338651 0.7775959088
H 0.4332400457 -2.0767868206 -2.2962089779
H 0.287698929 -0.3112001135 -1.9874462685
H -1.2330808392 -0.9540564377 3.1919329016
H -0.6639542185 0.5119891731 2.3468133862
H -2.9754963106 1.4221280226 2.3399630608
H -3.5574687183 -0.0122011617 3.2038789855
H -2.43334019 1.1057886173 3.9960855433
H -4.1688970242 -1.6967650767 0.6581673014
H -5.4562669139 -0.4553464051 0.6189587343
H -5.9247485048 -2.2095345008 -1.0635288917
H -5.5560851378 -0.6771346815 -1.8722549138
H -4.3378449451 -1.957345553 -1.8081370586
*
