! pbe def2-sv(p) def2/J RI DEFGRID1 loosescf d4 GCP(DFT/SV(P)) printgap
%output
    printlevel normal
end
* xyz 0 1
C 3.0711066505 -3.7814284002 1.1812593944
C 2.4875321263 -3.1788313389 -0.0863949784
O 2.5604067047 -1.7407105243 -0.0600118807
C 1.6186705479 -1.075026067 0.5668359347
O 0.6782594118 -1.5878131605 1.1433268651
C 1.8109188048 0.4222306555 0.4571615863
C 0.5845327293 1.0175685851 -0.2239731348
H 0.382247161 0.5172293562 -1.1799979649
C 0.6580879354 2.5177894288 -0.4767682502
O -0.0789707208 3.0756366705 -1.2571879272
O 1.5671858455 3.1034050238 0.2640812904
C 1.7276411098 4.5332508498 0.1468049262
C 2.6795555818 4.8825201009 -0.9855611516
S -0.9289738872 0.7985992553 0.7909032577
P -1.7070514569 -0.9728191634 -0.1056740926
S -0.8113927213 -1.6591458937 -1.7041678057
O -1.9790787569 -2.0669793415 0.9911035269
C -2.4558337077 -1.7484935617 2.3128410328
O -3.2259505437 -0.5219165973 -0.3974264761
C -3.5229599282 0.4493675232 -1.4015106565
H 3.0661187852 -4.8629858461 1.0964245316
H 4.0915799998 -3.4364186777 1.3230018715
H 2.4730885809 -3.4926597818 2.0425488758
H 1.4403286195 -3.4700857319 -0.2148864172
H 3.0638121883 -3.4602925727 -0.967567677
H 2.7024246365 0.624787521 -0.1347661124
H 1.9184966473 0.849771379 1.4549213094
H 0.7444477158 4.9807033304 -0.0208872408
H 2.1281947225 4.8383828641 1.1132571184
H 2.2629223339 4.5609429344 -1.9373429807
H 2.8244821355 5.957393531 -1.0111156735
H 3.6389619885 4.3957674983 -0.8350377956
H -1.6697311205 -1.2319563176 2.8626089777
H -2.6760735144 -2.7094329873 2.7702984244
H -3.3501534848 -1.1306620822 2.2532713899
H -3.0882044439 1.414747569 -1.1364071108
H -4.607127533 0.5146580464 -1.4357936004
H -3.1285679742 0.1241308333 -2.3656817569
*
