! pbe def2-sv(p) def2/J RI DEFGRID1 loosescf d4 GCP(DFT/SV(P)) printgap
%output
    printlevel normal
end
* xyz 0 1
C 4.3062541221 -2.0846445717 -0.460755164
C 4.7324363848 -0.634931224 -0.5684082986
O 3.778215254 0.262256712 0.0269179051
P 2.3249191368 0.482768784 -0.5817467262
S 2.2466626332 0.5034890778 -2.5376948008
O 1.9037433254 1.8643123533 0.0516532143
C 2.3840946657 2.3956498058 1.3114724943
C 2.1104483727 1.4778992029 2.4831492057
S 1.0981810976 -0.9953127736 0.3582520763
C 0.1289366982 -1.5246154244 -1.0687400206
S -1.1236058557 -0.3184401956 -1.6224029783
P -2.0898981053 0.0970579451 0.218006712
S -1.4162678729 1.5021379564 1.3908260428
O -2.1471990685 -1.376541385 0.829279141
C -2.1324205816 -1.6114884043 2.2520596269
C -3.4860099566 -1.3175395514 2.8648016693
O -3.5562663838 0.4774802998 -0.2515524207
C -4.3944711113 -0.4224831684 -1.0196921472
C -5.8267283643 -0.2411133206 -0.5596182916
H 3.4346447383 -2.2631204977 -1.0883311467
H 5.1177614451 -2.720460366 -0.7997235221
H 4.0575443635 -2.3330663016 0.5677144105
H 4.8652422575 -0.3500421167 -1.6166212452
H 5.6499265172 -0.441902875 -0.0107711112
H 3.4533882191 2.5896325546 1.2049933512
H 1.8375868941 3.3350107099 1.4075681916
H 2.6183923326 0.525120275 2.345637718
H 2.4749078903 1.9485859926 3.3906225204
H 1.0415955283 1.3029686382 2.5795106488
H -0.3628571246 -2.450614066 -0.7843629445
H 0.7802119335 -1.662069072 -1.9321706976
H -1.8581424787 -2.6626852175 2.3464684469
H -1.3581240177 -0.9830687215 2.7018804029
H -3.7317620564 -0.26579004 2.7186707048
H -4.2543510459 -1.9306025233 2.4007709057
H -3.4532923447 -1.5268902326 3.9291501219
H -4.2746966691 -0.1558960965 -2.0722103728
H -4.0505824171 -1.4479943877 -0.8640836917
H -5.9245526766 -0.5106104232 0.4885121008
H -6.1256859561 0.7961528607 -0.681190643
H -6.4747651496 -0.8747017895 -1.1566212174
*
