! pbe def2-sv(p) def2/J RI DEFGRID1 loosescf d4 GCP(DFT/SV(P)) printgap
%output
    printlevel normal
end
* xyz 0 1
C 1.9779288501 -1.4902252919 -2.6327967618
C 2.6793794531 -0.2271409006 -2.1747931605
O 3.1977463154 -0.3881487071 -0.8414391658
P 2.4919047161 0.1473494865 0.4747148207
S 2.1036602681 2.0673983565 0.5587803075
O 3.5595291672 -0.2266387676 1.5743385165
C 4.431324537 -1.3847275994 1.5556268376
C 3.6698859558 -2.6929497237 1.5836435358
S 0.8123621253 -1.1186439358 0.7998281693
C -0.2823252126 0.0617600247 1.6570405846
S -2.0213065342 -0.3061626528 1.3666711666
P -2.260620777 0.5330218796 -0.5874609328
S -0.6631116075 0.9432616519 -1.633339275
O -3.1433779543 1.8203490338 -0.3645563094
C -4.392793242 1.800359566 0.3754827149
C -4.2457367574 2.5972158568 1.6560335474
O -3.2961674909 -0.4511741374 -1.2893804292
C -2.8764466524 -1.6148804461 -2.0261762264
C -2.3064295391 -2.6933566531 -1.1270586353
H 2.6462065462 -2.3421883977 -2.5480696242
H 1.0913156323 -1.6678584205 -2.0295232755
H 1.6762210202 -1.3667044744 -3.6675463929
H 2.0026665068 0.6321629327 -2.2029197712
H 3.5573924031 -0.0153210649 -2.7880335058
H 5.0637837441 -1.3182715387 0.6687249046
H 5.0358041094 -1.2509243447 2.4541420554
H 4.379907814 -3.5115486237 1.6489067682
H 3.0028935159 -2.7284324175 2.4410369497
H 3.0788786614 -2.8071889852 0.6768646014
H -0.0379487511 1.0677303455 1.3050636991
H -0.1292342008 -0.0288201175 2.7294796778
H -5.1255601715 2.2532360533 -0.2938826747
H -4.6714071383 0.7643844254 0.5799784418
H -3.5381989162 2.1147150151 2.3259409492
H -3.8895086131 3.5989555245 1.4312832324
H -5.2116339878 2.6615286766 2.1466936855
H -3.7884595717 -1.9471813797 -2.5241364265
H -2.1387836896 -1.3005202394 -2.7711562246
H -3.0025944401 -2.9250860304 -0.3252384126
H -2.1245429053 -3.5867348567 -1.7155757575
H -1.3647527487 -2.3654238482 -0.6881365524
*
