  21
  -32.5091136500000       4.692109428532771E-002 !mtd12
 C         -3.6683088152       -0.3894970355       -0.9043631529
 C         -3.0079469407       -0.4309592877        0.4656108192
 O         -1.5890185453       -0.6141206429        0.3519620494
 C         -0.8270276366        0.4662379813        0.1962309063
 O         -1.2747172571        1.5995378013        0.1701689848
 C          0.6099580008        0.1447352494        0.0730866602
 C          1.5160498539        1.1940136757       -0.0740795283
 C          2.8671190939        0.9302806078       -0.1921505123
 C          3.3207105251       -0.3797354477       -0.1647673957
 C          2.4227567203       -1.4265692689       -0.0194380794
 C          1.0695818860       -1.1710306598        0.0996571762
 H         -3.4269039358       -1.2893230127       -1.4637490237
 H         -4.7442240478       -0.3192624153       -0.7824813247
 H         -3.3180866377        0.4776841327       -1.4600163365
 H         -3.3494597919       -1.2894945323        1.0449490860
 H         -3.1985317582        0.4975577921        1.0127827548
 H          1.1356076962        2.2043620993       -0.0921820483
 H          3.5657896346        1.7443567347       -0.3054354797
 H          4.3759685719       -0.5850910549       -0.2571232350
 H          2.7795401473       -2.4444594880        0.0011053280
 H          0.3622730644       -1.9768891365        0.2131497406
  21
  -32.5091136200000       4.691960475904984E-002 !mtd1
 C         -3.6452294729        0.1779297028       -1.0467966396
 C         -2.9598362780        0.8172339079        0.1515859657
 O         -1.5335379340        0.8218983265       -0.0083721633
 C         -0.8550848136       -0.2561235976        0.3782231991
 O         -1.3843843643       -1.2318162868        0.8815715447
 C          0.5989808674       -0.1364220282        0.1439653750
 C          1.1537720951        0.9998701209       -0.4427747854
 C          2.5195333206        1.0696471284       -0.6438490111
 C          3.3358347919        0.0146707005       -0.2643163872
 C          2.7874396800       -1.1174058277        0.3190390726
 C          1.4231598946       -1.1949715275        0.5232277487
 H         -4.7211029657        0.2522243006       -0.9270414480
 H         -3.3486119211        0.6839111525       -1.9616149938
 H         -3.3689765957       -0.8719233200       -1.1170583409
 H         -3.2075050080        0.2761774767        1.0701656031
 H         -3.2280967231        1.8699423877        0.2473811209
 H          0.5093625115        1.8140469464       -0.7333235165
 H          2.9500046212        1.9486456488       -1.0975923216
 H          4.4012791792        0.0744812259       -0.4240222789
 H          3.4225491854       -1.9381044457        0.6136408344
 H          0.9697272712       -2.0643773170        0.9753409365
  21
  -32.5091136000000       4.691861176780109E-002 !mtd12
 C         -3.6667738053       -0.3898632953       -0.9032965176
 C         -3.0078326474       -0.4306242911        0.4673785132
 O         -1.5887647524       -0.6137622349        0.3553525731
 C         -0.8272685767        0.4662574493        0.1951340743
 O         -1.2754868585        1.5992816005        0.1646838294
 C          0.6097923295        0.1448190060        0.0727905281
 C          1.5162280528        1.1941972464       -0.0713452373
 C          2.8673118604        0.9303597372       -0.1889833213
 C          3.3205349482       -0.3798458612       -0.1642991517
 C          2.4222168045       -1.4267681099       -0.0219888474
 C          1.0690492907       -1.1711230460        0.0966875048
 H         -3.3170604057        0.4777805189       -1.4585236970
 H         -3.4234424148       -1.2892749005       -1.4624295480
 H         -4.7429092916       -0.3211287461       -0.7827238181
 H         -3.3497702223       -1.2889407007        1.0467845154
 H         -3.1991430270        0.4981092687        1.0139385989
 H          1.1360485356        2.2046807256       -0.0876883378
 H          3.5662624782        1.7444858119       -0.2999931956
 H          4.3757793700       -0.5852637923       -0.2564298093
 H          2.7786387681       -2.4448272769       -0.0036897602
 H          0.3614006578       -1.9770040439        0.2077073168
  21
  -32.5091134800000       4.691265426232070E-002 !mtd11
 C         -3.6231771260        0.6800065515        0.9016333875
 C         -2.9663534034        0.6569892213       -0.4704765677
 O         -1.5371482253        0.7309866475       -0.3620229464
 C         -0.8610481044       -0.4029575573       -0.1919360962
 O         -1.3951157668       -1.4977724323       -0.1512835130
 C          0.5966204999       -0.1921746175       -0.0726471257
 C          1.1561923845        1.0839742270       -0.1118178513
 C          2.5250234310        1.2357015964        0.0058469694
 C          3.3396613291        0.1243208428        0.1623367190
 C          2.7865498120       -1.1465632510        0.2020137100
 C          1.4191963648       -1.3066429082        0.0853263479
 H         -4.7017234940        0.6926485944        0.7835914670
 H         -3.3394836440       -0.2065610348        1.4646280895
 H         -3.3103507174        1.5635389874        1.4515596817
 H         -3.2422818507        1.5337321697       -1.0574213184
 H         -3.2300217461       -0.2592768621       -1.0078774367
 H          0.5129948448        1.9407139047       -0.2337474207
 H          2.9591157879        2.2228588240       -0.0241830950
 H          4.4075733490        0.2486848064        0.2537660895
 H          3.4204507788       -2.0108689348        0.3238356899
 H          0.9620469089       -2.2844504819        0.1131449844
  21
  -32.5091134200000       4.690967579290484E-002 !mtd12
 C         -3.6452428322        0.1943862083       -1.0477906061
 C         -2.9600576790        0.8142605784        0.1608212221
 O         -1.5336517677        0.8210081373        0.0013581696
 C         -0.8551920025       -0.2617809381        0.3743722981
 O         -1.3844542390       -1.2437825483        0.8653730735
 C          0.5989733417       -0.1386860004        0.1424381042
 C          1.1525256150        1.0006397498       -0.4395567496
 C          2.5183730389        1.0734482050       -0.6388439424
 C          3.3360300156        0.0186232380       -0.2619451335
 C          2.7888768312       -1.1164299160        0.3167772316
 C          1.4245024619       -1.1971706916        0.5188737829
 H         -3.3493862461        0.7156899869       -1.9541719169
 H         -3.3680309271       -0.8538573824       -1.1355419847
 H         -4.7211453120        0.2656338273       -0.9265619318
 H         -3.2080867812        0.2587374930        1.0706176865
 H         -3.2280470174        1.8653881718        0.2733080082
 H          0.5070877252        1.8145424161       -0.7285448523
 H          2.9477530459        1.9546766144       -1.0892851751
 H          4.4016033263        0.0809798289       -0.4196854874
 H          3.4250951413       -1.9368689550        0.6097003387
 H          0.9720965018       -2.0690875762        0.9671849122
  21
  -32.5091134100000       4.690917939972079E-002 !mtd1
 C         -3.6255225417        0.7144678561        0.8774407249
 C         -2.9665766517        0.6384098060       -0.4917249849
 O         -1.5375211561        0.7167740193       -0.3847073792
 C         -0.8609767772       -0.4100776369       -0.1738572956
 O         -1.3948091518       -1.5026463406       -0.0919768983
 C          0.5967756814       -0.1947455391       -0.0642358923
 C          1.1558041495        1.0794148861       -0.1491497380
 C          2.5249566555        1.2354058730       -0.0413458227
 C          3.3405301284        0.1302254989        0.1504302636
 C          2.7879348521       -1.1386088390        0.2360640793
 C          1.4202203383       -1.3028715001        0.1297982874
 H         -3.3416834565       -0.1489309247        1.4752962141
 H         -3.3147876231        1.6193415800        1.3927325664
 H         -4.7039085186        0.7210383915        0.7571762518
 H         -3.2418899997        1.4917046057       -1.1125752924
 H         -3.2294449939       -0.2980166614       -0.9936168588
 H          0.5119943162        1.9312352785       -0.2987025031
 H          2.9586194550        2.2210174433       -0.1071554186
 H          4.4087177886        0.2579328173        0.2335332428
 H          3.4224698430       -1.9980763305        0.3855836024
 H          0.9635583024       -2.2792653143        0.1929383850
  21
  -32.5091134000000       4.690868301178951E-002 !mtd4
 C         -3.6611429670       -0.3753080163        0.9252867804
 C         -3.0102471567       -0.4359577882       -0.4485100674
 O         -1.5905930749       -0.6183801594       -0.3425299162
 C         -0.8285282557        0.4630667798       -0.1949746005
 O         -1.2769751160        1.5961204886       -0.1708153348
 C          0.6092952058        0.1432355766       -0.0775841707
 C          1.5140148146        1.1933261730        0.0723809380
 C          2.8657494755        0.9312660353        0.1861526640
 C          3.3214443169       -0.3778675897        0.1511253131
 C          2.4249351911       -1.4254284803        0.0024337715
 C          1.0710050244       -1.1716125353       -0.1119029052
 H         -3.3070897953        0.4996048596        1.4662537512
 H         -4.7378737926       -0.3067097491        0.8099847304
 H         -3.4157292949       -1.2671717618        1.4956059290
 H         -3.2043570703        0.4851502915       -1.0068964938
 H         -3.3560022364       -1.3021443310       -1.0137347747
 H          1.1318451141        2.2029046726        0.0964125076
 H          3.5633278776        1.7459037059        0.3021651558
 H          4.3772457869       -0.5818858905        0.2401727136
 H          2.7833600251       -2.4426070531       -0.0241778855
 H          0.3647881623       -1.9780714361       -0.2279000835
  21
  -32.5091132400000       4.690074151992698E-002 !md6
 C         -3.6429508413        0.1667537511       -1.0445875090
 C         -2.9595455700        0.8200919061        0.1473530133
 O         -1.5330899123        0.8246205046       -0.0107658417
 C         -0.8553813403       -0.2527150239        0.3792671404
 O         -1.3856071599       -1.2264065215        0.8854435955
 C          0.5987732960       -0.1347809200        0.1449676677
 C          1.1550066727        1.0010642581       -0.4412508912
 C          2.5206610488        1.0686675787       -0.6434597306
 C          3.3354329625        0.0118968585       -0.2657386565
 C          2.7856357043       -1.1196293731        0.3173647108
 C          1.4214810150       -1.1949205819        0.5229367481
 H         -3.3655421123       -0.8835405181       -1.1026233135
 H         -4.7190492385        0.2412463779       -0.9271882230
 H         -3.3455446430        0.6626466052       -1.9646516861
 H         -3.2079220791        0.2891445372        1.0716148886
 H         -3.2288512480        1.8735408150        0.2310234853
 H          0.5117535377        1.8164060225       -0.7309766517
 H          2.9521998332        1.9473297875       -1.0968215009
 H          4.4008702647        0.0700124526       -0.4262847486
 H          3.4196058126       -1.9415589485        0.6109664283
 H          0.9669389682       -2.0639531522        0.9746530530
  21
  -32.5091132300000       4.690024522128444E-002 !mtd5
 C         -3.6624756287       -0.3815143056        0.9237535736
 C         -3.0101706205       -0.4336831951       -0.4497030017
 O         -1.5906524860       -0.6164767876       -0.3432172197
 C         -0.8282464167        0.4644785102       -0.1937946859
 O         -1.2763217029        1.5976396597       -0.1678531323
 C          0.6094460372        0.1439105198       -0.0769208920
 C          1.5148124351        1.1934342851        0.0728605569
 C          2.8664951169        0.9305847820        0.1857807093
 C          3.3214645624       -0.3787596526        0.1502007834
 C          2.4242613441       -1.4258001021        0.0018037651
 C          1.0704371395       -1.1711902558       -0.1117757748
 H         -3.4176583784       -1.2769305291        1.4887149242
 H         -3.3089786553        0.4900069118        1.4704913055
 H         -4.7391086283       -0.3122130824        0.8077645242
 H         -3.2037881454        0.4907287495       -1.0027573030
 H         -3.3552656573       -1.2964830680       -1.0204982951
 H          1.1333510163        2.2032622763        0.0973283138
 H          3.5645614754        1.7448521225        0.3014164487
 H          4.3772110710       -0.5833814876        0.2384143032
 H          2.7820896186       -2.4431714670       -0.0252892789
 H          0.3636503184       -1.9771827329       -0.2275619961
  21
  -32.5091132200000       4.689974892824633E-002 !mtd10
 C         -3.6601350493       -0.3785378607        0.9235735240
 C         -3.0102706470       -0.4341424154       -0.4509044461
 O         -1.5905888425       -0.6171706161       -0.3467297026
 C         -0.8285866457        0.4636469367       -0.1931793244
 O         -1.2774647930        1.5963207176       -0.1626234719
 C          0.6091965166        0.1434415769       -0.0773041278
 C          1.5145190843        1.1934898677        0.0693452594
 C          2.8663092405        0.9311858468        0.1823108756
 C          3.3214107400       -0.3782164838        0.1501506255
 C          2.4242172322       -1.4257814728        0.0049060575
 C          1.0703189055       -1.1717041919       -0.1089249382
 H         -4.7369226297       -0.3088934893        0.8093178773
 H         -3.4149126869       -1.2727981321        1.4901567491
 H         -3.3052433212        0.4940242990        1.4677065456
 H         -3.2046306187        0.4890996291       -1.0056326671
 H         -3.3565023114       -1.2981276451       -1.0191625599
 H          1.1327917406        2.2032778374        0.0914355105
 H          3.5642279264        1.7458068841        0.2959228404
 H          4.3771202744       -0.5824919672        0.2390421200
 H          2.7822363967       -2.4431753112       -0.0192745132
 H          0.3636489390       -1.9781785739       -0.2221546197
  21
  -32.5091132000000       4.689875635721991E-002 !mtd10
 C         -3.6275794595        0.6960765321        0.8826864976
 C         -2.9658236413        0.6463832046       -0.4863335266
 O         -1.5370167578        0.7239421089       -0.3758552771
 C         -0.8609266046       -0.4056953113       -0.1781210552
 O         -1.3954837631       -1.4988438181       -0.1096576984
 C          0.5968865132       -0.1927178946       -0.0654752740
 C          1.1572390807        1.0817536538       -0.1353574537
 C          2.5266106229        1.2349232006       -0.0258860895
 C          3.3409915327        0.1267008579        0.1526150041
 C          2.7870585302       -1.1424984747        0.2232578573
 C          1.4191757857       -1.3039656466        0.1153251109
 H         -3.3207727713        1.5924744310        1.4147696937
 H         -4.7057052941        0.7013412462        0.7604085674
 H         -3.3422942538       -0.1770208086        1.4655169751
 H         -3.2408026219        1.5107672640       -1.0917664077
 H         -3.2269793820       -0.2808246514       -1.0059439081
 H          0.5143139957        1.9360551609       -0.2744838020
 H          2.9613546775        2.2207673777       -0.0799064419
 H          4.4093656674        0.2521607071        0.2368640120
 H          3.4207414457       -2.0043650196        0.3623422128
 H          0.9613277567       -2.2804852016        0.1668311343
  21
  -32.5091128500000       4.688138976569111E-002 !mtd11
 C         -3.6691383955       -0.3743887817       -0.9013014676
 C         -3.0072815212       -0.4351860123        0.4672164120
 O         -1.5885819880       -0.6186166631        0.3511319137
 C         -0.8275532410        0.4623006223        0.1939755197
 O         -1.2767406748        1.5950115753        0.1667877890
 C          0.6097932424        0.1427463598        0.0714006181
 C          1.5141594312        1.1933315427       -0.0771091338
 C          2.8658494563        0.9319039607       -0.1930141565
 C          3.3217881625       -0.3772172644       -0.1622780154
 C          2.4255249167       -1.4253822814       -0.0160827702
 C          1.0717218518       -1.1721688158        0.1009223293
 H         -4.7446486396       -0.3017829419       -0.7770384877
 H         -3.3166022588        0.4985561647       -1.4463869709
 H         -3.4317637272       -1.2679565282       -1.4723532803
 H         -3.3493030034       -1.3008513316        1.0354168771
 H         -3.1964490380        0.4863214154        1.0266154257
 H          1.1318700753        2.2029270514       -0.0982220839
 H          3.5630452916        1.7470954292       -0.3073363490
 H          4.3775480505       -0.5809922211       -0.2523919410
 H          2.7842952022       -2.4425238929        0.0071572189
 H          0.3656801110       -1.9789914293        0.2154081875
  21
  -32.5087916200000       3.337132042043142E-002 !md2
 C         -3.7513739714        0.8571889631       -1.2480776242
 C         -3.0271335162        0.1803821537       -0.1007094506
 O         -1.6154786144        0.2663274120       -0.3473815502
 C         -0.8063125561       -0.2838699709        0.5521429279
 O         -1.2218476306       -0.8435688496        1.5533283212
 C          0.6247002812       -0.1466964764        0.2139654452
 C          1.0420035425        0.5042928284       -0.9459078789
 C          2.3918349137        0.6099754676       -1.2241937833
 C          3.3280780694        0.0713945223       -0.3544099365
 C          2.9166069469       -0.5768546278        0.8002693574
 C          1.5693003541       -0.6867208484        1.0857381047
 H         -4.8215673886        0.8019897926       -1.0783686497
 H         -3.4518564652        1.8989129101       -1.3140935694
 H         -3.5104642426        0.3619186842       -2.1840581570
 H         -3.2992934637       -0.8770195446       -0.0136715693
 H         -3.2406294135        0.6645795026        0.8582971634
 H          0.3051887746        0.9192763459       -1.6145878401
 H          2.7159104460        1.1136314894       -2.1213753533
 H          4.3804831314        0.1567010785       -0.5766670816
 H          3.6452221619       -0.9960507012        1.4764820552
 H          1.2207548586       -1.1859253609        1.9775105104
  21
  -32.5087914800000       3.336637691643943E-002 !mtd8
 C         -3.7498266520        0.8644254228       -1.2452710305
 C         -3.0272463468        0.1790073282       -0.1019516433
 O         -1.6154071249        0.2644500904       -0.3478317081
 C         -0.8064630246       -0.2862570215        0.5516405678
 O         -1.2220744960       -0.8471512859        1.5520107834
 C          0.6245200279       -0.1482885478        0.2136232503
 C          1.0412675568        0.5011333521       -0.9473257547
 C          2.3910360909        0.6088970424       -1.2250589166
 C          3.3278320413        0.0738190595       -0.3536888728
 C          2.9168701147       -0.5732617557        0.8018666466
 C          1.5696472228       -0.6852513084        1.0867615357
 H         -3.4488023514        1.9061908540       -1.3042975214
 H         -3.5088700719        0.3749906309       -2.1842859740
 H         -4.8201791294        0.8095546445       -1.0767030969
 H         -3.3011548222       -0.8785157895       -0.0219650227
 H         -3.2402671393        0.6573625387        0.8600982183
 H          0.3040214187        0.9133310079       -1.6172629111
 H          2.7145875396        1.1114774450       -2.1231081736
 H          4.3802339687        0.1612939239       -0.5750993371
 H          3.6459200506       -0.9888485846        1.4796714442
 H          1.2215241941       -1.1833063728        1.9792847095
  21
  -32.5087914100000       3.336390543906736E-002 !mtd4
 C         -3.7515358448        0.8562653541       -1.2484740309
 C         -3.0270779691        0.1802992941       -0.1007108690
 O         -1.6156246515        0.2628201474       -0.3495080286
 C         -0.8062277603       -0.2835840348        0.5522862793
 O         -1.2216895706       -0.8383349221        1.5561893992
 C          0.6246867291       -0.1473636860        0.2135712903
 C          1.0419522492        0.5018777662       -0.9473265299
 C          2.3917578561        0.6081901911       -1.2251856830
 C          3.3281520438        0.0718317715       -0.3540981909
 C          2.9167047254       -0.5751425576        0.8012990317
 C          1.5693305580       -0.6855016598        1.0864578721
 H         -3.5150258019        0.3569645343       -2.1834204416
 H         -4.8215260746        0.8056976590       -1.0758544016
 H         -3.4481905195        1.8966770102       -1.3186788822
 H         -3.3015083533       -0.8763387961       -0.0112334812
 H         -3.2381112665        0.6668498164        0.8576930187
 H          0.3049798212        0.9150353097       -1.6169485364
 H          2.7158472753        1.1103847091       -2.1231999088
 H          4.3805770173        0.1578949755       -0.5759609127
 H          3.6452398689       -0.9925429284        1.4784938027
 H          1.2208165042       -1.1835668048        1.9788091502
  21
  -32.5087913700000       3.336249324833309E-002 !gc
 C         -3.8208784166       -1.3221998747       -0.1557014810
 C         -3.0339412586       -0.0353992425       -0.0010598470
 O         -1.6351705879       -0.3558079576       -0.0436241888
 C         -0.7769111426        0.6513330363        0.0828300209
 O         -1.1386556237        1.8070752960        0.2297579177
 C          0.6365224716        0.2271224142        0.0270533172
 C          1.6282301963        1.1989149419        0.1536083537
 C          2.9609118814        0.8376147999        0.1062940689
 C          3.3107992913       -0.4928583289       -0.0674740479
 C          2.3275068156       -1.4626207630       -0.1939674470
 C          0.9919470591       -1.1094713095       -0.1475489161
 H         -4.8820839889       -1.0984454590       -0.1265410023
 H         -3.5796760196       -1.7942802087       -1.1034790645
 H         -3.5763686175       -2.0072029704        0.6507209316
 H         -3.2462700225        0.4602440611        0.9523803723
 H         -3.2506935337        0.6742796328       -0.8067703008
 H          1.3272950576        2.2271289260        0.2878989848
 H          3.7259562020        1.5917383306        0.2046693393
 H          4.3518166529       -0.7741978983       -0.1044109294
 H          2.6037777655       -2.4966228399       -0.3291308863
 H          0.2189206422       -1.8546244388       -0.2447249019
  21
  -32.5087912000000       3.335649210503334E-002 !mtd1
 C         -3.8213880233       -1.3198336614       -0.1696531962
 C         -3.0338583222       -0.0359155273        0.0046563719
 O         -1.6352432358       -0.3565764157       -0.0393240509
 C         -0.7768131157        0.6505806846        0.0861367209
 O         -1.1386291443        1.8062463163        0.2339630062
 C          0.6365509790        0.2266400320        0.0285344249
 C          1.6280928989        1.1991462198        0.1512010299
 C          2.9608362610        0.8384396499        0.1016693207
 C          3.3109086328       -0.4922281850       -0.0703420716
 C          2.3278209850       -1.4627304425       -0.1926464616
 C          0.9921935427       -1.1101697527       -0.1439948201
 H         -3.5760201553       -2.0175441537        0.6255770213
 H         -4.8824881376       -1.0961549360       -0.1356044881
 H         -3.5815671417       -1.7769513655       -1.1251339900
 H         -3.2479270142        0.4462840276        0.9646338882
 H         -3.2485725168        0.6853452163       -0.7912987473
 H          1.3267558563        2.2274148300        0.2841769445
 H          3.7257133988        1.5930474448        0.1971876497
 H          4.3519370701       -0.7731676423       -0.1088285106
 H          2.6043914943       -2.4968690797       -0.3261813073
 H          0.2193139199       -1.8558254484       -0.2379598536
  21
  -32.5087909500000       3.334766885522786E-002 !mtd3
 C         -3.8199281141       -1.3247759859       -0.1403798481
 C         -3.0340149681       -0.0346128706       -0.0104945182
 O         -1.6350523943       -0.3543745725       -0.0522699490
 C         -0.7769887749        0.6520820317        0.0801756925
 O         -1.1386868061        1.8072945102        0.2311958806
 C          0.6364431096        0.2275181281        0.0263416579
 C          1.6283582134        1.1989810029        0.1538098583
 C          2.9609571348        0.8372201285        0.1076685044
 C          3.3105301353       -0.4934102331       -0.0655978191
 C          2.3270254316       -1.4628661496       -0.1927643707
 C          0.9915562852       -1.1092310058       -0.1476748732
 H         -3.5810383298       -1.8128204316       -1.0806093123
 H         -3.5721044947       -1.9955015301        0.6769516877
 H         -4.8812975142       -1.1018085726       -0.1117892963
 H         -3.2438535839        0.4776497864        0.9346709105
 H         -3.2541064456        0.6603584216       -0.8280189583
 H          1.3275688763        2.2273125137        0.2875745327
 H          3.7261771742        1.5911020935        0.2065072103
 H          4.3514771497       -0.7751366220       -0.1015553534
 H          2.6030803054       -2.4969987376       -0.3273904484
 H          0.2183504651       -1.8541328723       -0.2453288519
  21
  -32.5086845100000       2.979538785603670E-002 !mtd14
 C         -3.6602962028        1.1893557007       -0.8113968340
 C         -3.0309862493       -0.1340657412       -0.4077576482
 O         -1.6045939591       -0.0552449636       -0.5560738555
 C         -0.8283792812       -0.3001403433        0.4947685120
 O         -1.2600677677       -0.6178842632        1.5900846681
 C          0.6106343475       -0.1519129768        0.1912754526
 C          1.0552849193        0.2652449132       -1.0622882323
 C          2.4107444669        0.3926466114       -1.3011883616
 C          3.3261585776        0.1057089790       -0.2997701340
 C          2.8876660830       -0.3100807911        0.9482153255
 C          1.5343807436       -0.4382117519        1.1954801169
 H         -3.3937123223        1.4313595307       -1.8361008887
 H         -4.7395206779        1.1103815406       -0.7309171431
 H         -3.3126142142        1.9868107463       -0.1597235720
 H         -3.3642453918       -0.9424795922       -1.0636112842
 H         -3.2598160856       -0.3870567981        0.6321084573
 H          0.3349863129        0.4854599131       -1.8336532689
 H          2.7555259524        0.7167255852       -2.2706677714
 H          4.3831375255        0.2064609470       -0.4919437710
 H          3.5997761076       -0.5339699416        1.7269967682
 H          1.1655696989       -0.7595490998        2.1580495523
  21
  -32.5086831100000       2.975127948069395E-002 !gc
 C         -3.7313677732       -1.0712283037        0.6299048385
 C         -3.0336213777       -0.1695572632       -0.3752910967
 O         -1.6173884673       -0.4043851131       -0.3298500427
 C         -0.7980383581        0.6149772329       -0.0931922698
 O         -1.1800871351        1.7626573790        0.0618433914
 C          0.6224275994        0.2093088736       -0.0426873924
 C          1.5877152008        1.1951340669        0.1577527702
 C          2.9251105756        0.8531150317        0.2146608749
 C          3.3062279972       -0.4725743189        0.0734156599
 C          2.3494119420       -1.4563889691       -0.1260820610
 C          1.0094835614       -1.1221810024       -0.1854208922
 H         -4.8034872541       -0.9177264349        0.5633225092
 H         -3.5040561107       -2.1117215246        0.4169196588
 H         -3.4007622357       -0.8384190552        1.6388341931
 H         -3.2185040999        0.8880245421       -0.1631510455
 H         -3.3521625251       -0.3994293890       -1.3953567973
 H          1.2628695514        2.2192064006        0.2654130230
 H          3.6694405004        1.6184762490        0.3692055957
 H          4.3507777683       -0.7391823899        0.1188674397
 H          2.6497540615       -2.4867586501       -0.2353154030
 H          0.2573595345       -1.8789546394       -0.3400877438
  21
  -32.5086784500000       2.960493146078031E-002 !gc
 C         -3.7262899036        0.5824472114       -1.3450518814
 C         -3.0198481028        0.4072349783       -0.0131237288
 O         -1.6018400579        0.4555934612       -0.2346164877
 C         -0.8120342589       -0.2562514071        0.5626074480
 O         -1.2344291690       -0.9382273970        1.4815238833
 C          0.6194042807       -0.1364496237        0.2165005010
 C          1.0532578186        0.6689136574       -0.8353571886
 C          2.4026375374        0.7518457089       -1.1232726356
 C          3.3223622702        0.0371964702       -0.3705071833
 C          2.8945024544       -0.7650518800        0.6763996317
 C          1.5475292232       -0.8526231306        0.9711481898
 H         -3.4469169248        1.5317584206       -1.7922015520
 H         -3.4519713232       -0.2200308016       -2.0240563955
 H         -4.7992598585        0.5636098324       -1.1851322054
 H         -3.2661015417       -0.5502386577        0.4576813079
 H         -3.2751785544        1.2143844800        0.6808430774
 H          0.3295132233        1.2202155540       -1.4137239422
 H          2.7394608441        1.3752997017       -1.9366846737
 H          4.3745121016        0.1057054170       -0.5997212843
 H          3.6099198978       -1.3209642257        1.2619117638
 H          1.1866703167       -1.4691992960        1.7807487588
  21
  -32.5086818300000       2.971100896725697E-002 !md6
 C         -3.7804103561       -1.1904254887       -0.5796952260
 C         -3.0376492396       -0.1145448161        0.1910109135
 O         -1.6302359448       -0.3896252159        0.1176725464
 C         -0.7828582552        0.6318520318        0.1837223040
 O         -1.1453332328        1.7886642204        0.3190814835
 C          0.6310981727        0.2187631384        0.0691957623
 C          1.6153175374        1.2061652802        0.0772902190
 C          2.9474186513        0.8563863935       -0.0326967324
 C          3.3044151721       -0.4784189390       -0.1491368338
 C          2.3287858941       -1.4639916062       -0.1551021939
 C          0.9938831578       -1.1221724979       -0.0469929257
 H         -3.5668169767       -2.1665288139       -0.1545856131
 H         -4.8469167454       -0.9998497374       -0.5222755555
 H         -3.4717599337       -1.1857743819       -1.6213160698
 H         -3.3233767551       -0.1124063257        1.2478631288
 H         -3.2191963785        0.8836498213       -0.2211276428
 H          1.3093194149        2.2375598404        0.1691907366
 H          3.7064862370        1.6228414917       -0.0279272611
 H          4.3449184333       -0.7509011566       -0.2351539781
 H          2.6105159791       -2.5014646787       -0.2448923210
 H          0.2270546014       -1.8799153715       -0.0507332742
  21
  -32.5086745000000       2.948144496556600E-002 !gc
 C         -3.7403320993       -0.9694444815       -0.7723866697
 C         -3.0320143261       -0.2250197218        0.3473934439
 O         -1.6166640695       -0.4499356755        0.2522449222
 C         -0.7961072302        0.5941360656        0.1970690452
 O         -1.1766388523        1.7515897263        0.2484868855
 C          0.6234154490        0.2016159943        0.0717702919
 C          1.5906263771        1.2054188897        0.0470725809
 C          2.9273659796        0.8760009873       -0.0693381739
 C          3.3058917984       -0.4546222178       -0.1629123855
 C          2.3470408090       -1.4562703960       -0.1399231525
 C          1.0078190754       -1.1349877265       -0.0225220422
 H         -3.5112117765       -2.0296913604       -0.7174034074
 H         -4.8116160507       -0.8287145813       -0.6726303213
 H         -3.4201806425       -0.5901464860       -1.7393290627
 H         -3.3411174956       -0.6025064322        1.3257359182
 H         -3.2180023698        0.8522527818        0.2959675198
 H          1.2680006969        2.2331566008        0.1211673746
 H          3.6732281391        1.6551482091       -0.0873833964
 H          4.3499576874       -0.7112208340       -0.2544019174
 H          2.6452330544       -2.4903919643       -0.2137716523
 H          0.2541203154       -1.9056036069       -0.0031263632
  21
  -32.5086701900000       2.934729156585476E-002 !gc
 C         -3.7431612666       -0.9811526639       -0.7636282133
 C         -3.0322785183       -0.2201804725        0.3431906345
 O         -1.6172022507       -0.4467644657        0.2471766885
 C         -0.7954280688        0.5964502826        0.1951342021
 O         -1.1747572563        1.7542089327        0.2491273784
 C          0.6238066621        0.2027017112        0.0703402533
 C          1.5921803147        1.2054706891        0.0496191043
 C          2.9287469402        0.8748105441       -0.0650334000
 C          3.3059494584       -0.4560371385       -0.1607574525
 C          2.3459295670       -1.4566316397       -0.1421304234
 C          1.0068564403       -1.1341047038       -0.0265266945
 H         -3.4258442865       -0.6159548794       -1.7368844339
 H         -3.5132750967       -2.0403581823       -0.6937290115
 H         -4.8142346723       -0.8395684508       -0.6629432139
 H         -3.3395614608       -0.5826269901        1.3278817130
 H         -3.2181492478        0.8563283329        0.2764096243
 H          1.2705297944        2.2333723907        0.1255175347
 H          3.6755183961        1.6531453747       -0.0798262471
 H          4.3499133998       -0.7136283789       -0.2505091793
 H          2.6430986578       -2.4909043869       -0.2178389475
 H          0.2522505434       -1.9038874781       -0.0104567455
  21
  -32.5086796400000       2.964223500814741E-002 !gc
 C         -3.7355805994       -1.0798165316        0.6175628015
 C         -3.0331871659       -0.1664002854       -0.3736178018
 O         -1.6173237224       -0.4023263554       -0.3244014993
 C         -0.7973494972        0.6168956332       -0.0889427542
 O         -1.1788938011        1.7647318951        0.0655531448
 C          0.6228877287        0.2103443262       -0.0394574632
 C          1.5893808156        1.1952519559        0.1592875373
 C          2.9267029699        0.8521923389        0.2123552666
 C          3.3065381357       -0.4736056354        0.0691788848
 C          2.3484363446       -1.4566423984       -0.1281343034
 C          1.0086759160       -1.1214197558       -0.1835708969
 H         -3.5036780480       -2.1174558645        0.3959134870
 H         -3.4132626917       -0.8562246380        1.6312089257
 H         -4.8075881814       -0.9287678174        0.5443998326
 H         -3.2186449582        0.8887338057       -0.1500921370
 H         -3.3475581077       -0.3839476755       -1.3977282811
 H          1.2659109187        2.2195849762        0.2684779358
 H          3.6719010681        1.6169848281        0.3655240829
 H          4.3510254384       -0.7410112727        0.1110909952
 H          2.6476823758       -2.4871610316       -0.2387940451
 H          0.2555370384       -1.8774797879       -0.3366365305
  21
  -32.5086788600000       2.961777863984826E-002 !gc
 C         -3.7267804868        0.5811693103       -1.3457113194
 C         -3.0199197872        0.4058680045       -0.0140533369
 O         -1.6019804903        0.4539923406       -0.2361049236
 C         -0.8119083162       -0.2551136802        0.5632845224
 O         -1.2340990217       -0.9343957322        1.4842802432
 C          0.6194878620       -0.1360399695        0.2167413892
 C          1.0532656743        0.6677461155       -0.8363546708
 C          2.4026115547        0.7501557269       -1.1245642396
 C          3.3223740452        0.0365170552       -0.3708923289
 C          2.8945911411       -0.7641647217        0.6772427082
 C          1.5476588945       -0.8511688409        0.9723178955
 H         -3.4530811124       -0.2215431152       -2.0246723401
 H         -4.7996926725        0.5628759271       -1.1853905304
 H         -3.4471035723        1.5302541238       -1.7931077467
 H         -3.2661358428       -0.5515725199        0.4568337346
 H         -3.2749339496        1.2129615276        0.6800990096
 H          0.3294931641        1.2182373467       -1.4154541449
 H          2.7393816875        1.3724081143       -1.9389156755
 H          4.3744977864        0.1046350642       -0.6003271035
 H          3.6100322333       -1.3192892505        1.2634696280
 H          1.1868560768       -1.4665092714        1.7828826082
