! pbe def2-sv(p) def2/J RI DEFGRID1 loosescf d4 GCP(DFT/SV(P)) printgap
%output
    printlevel normal
end
* xyz 0 1
C 4.1170833568 -1.5595152107 -2.2231251845
C 4.4381272571 -1.5171799012 -0.7429528252
O 3.2515357663 -1.4990224684 0.0684706087
P 2.2615065276 -0.2579324536 0.1065279394
S 3.1224760053 1.5078518869 0.0708209551
O 1.3896273765 -0.5845798989 1.3901116382
C 1.7151491845 -0.0564409722 2.6928432747
C 2.9992530332 -0.648526262 3.2337948056
S 0.8387495326 -0.6670638649 -1.4009845723
C 0.1047505355 0.9922339863 -1.4280269172
S -0.8060113652 1.3963483616 0.0777595295
P -2.6585256528 0.4184609147 -0.3764039131
S -2.9188485558 0.02338327 -2.276301115
O -3.804698327 1.3718499689 0.1251519569
C -4.1830191938 1.6070032829 1.5037074952
C -3.074886176 2.252576952 2.3078686131
O -2.7785839439 -0.7744528431 0.6739790443
C -1.8657124776 -1.874413125 0.8174891743
C -1.954031192 -2.8563805869 -0.3331237354
H 3.4347172487 -2.3778474707 -2.4391288556
H 3.6498517671 -0.6247606829 -2.5309733619
H 5.034339416 -1.6954369848 -2.7871172152
H 5.0340058171 -0.6300012534 -0.5051059243
H 4.9636774256 -2.4164208337 -0.4189734598
H 1.7899226521 1.0327962875 2.6143462673
H 0.8549735009 -0.3247989117 3.3073910029
H 3.153991805 -0.3048405933 4.2517291031
H 2.9478178782 -1.7340208307 3.219831975
H 3.8409782664 -0.3280493632 2.6209744058
H -0.5762584314 1.0173312924 -2.2798743335
H 0.8970935442 1.7341438852 -1.5226665567
H -5.048456573 2.2651331343 1.4128063536
H -4.4841200305 0.6540060242 1.9421168158
H -2.7392454997 3.1676788255 1.8265195796
H -3.4461354819 2.4858888568 3.3009635244
H -2.2262326196 1.5763937405 2.3970237422
H -0.8481278877 -1.484930994 0.9193881638
H -2.1722471984 -2.3399674884 1.7565044717
H -2.9800199075 -3.1905030039 -0.464411628
H -1.6189003993 -2.392751318 -1.2590585849
H -1.3197477171 -3.711096961 -0.1211946381
*
