! pbe def2-sv(p) def2/J RI DEFGRID1 loosescf d4 GCP(DFT/SV(P)) printgap
%output
    printlevel normal
end
* xyz 0 1
C 4.2618120137 -1.9324424806 0.73061196
C 4.7842896551 -0.641892468 0.1343897816
O 3.7859210514 0.3967759784 0.1161007685
P 2.4687112848 0.3000494475 -0.770083809
S 2.6713317383 -0.4610763315 -2.5580952187
O 1.9975812725 1.8044514588 -0.8251653508
C 1.9184611798 2.6404756264 0.3563938139
C 1.1518316218 3.8918978923 -0.0131187148
S 1.0650112064 -0.6792765007 0.4896786988
C -0.1125851142 -1.063110629 -0.8555753637
S -1.6041171151 -1.8447247699 -0.2232180539
P -2.5623090608 -0.1002375002 0.5627307251
S -1.8160875662 1.6156508926 -0.0369072746
O -2.6675601813 -0.2999705637 2.1270282014
C -1.5758841475 -0.0791705354 3.040265661
C -0.9019542452 -1.3860650582 3.4103874993
O -4.1000188309 -0.3277675006 0.2827869849
C -4.7375329546 0.1073266502 -0.9310168735
C -4.2808416236 -0.6844677362 -2.1405177285
H 3.8126262267 -1.746923598 1.7030580602
H 3.5120501993 -2.3699623773 0.0731201607
H 5.0831100621 -2.6334178342 0.8395973466
H 5.1303297613 -0.8032324442 -0.8909645524
H 5.5880609414 -0.2149806801 0.7358541347
H 1.4085443687 2.0788347277 1.1448697144
H 2.9373383611 2.8676116307 0.6752896477
H 0.1344210832 3.6346667468 -0.2995170795
H 1.1233659978 4.5578944778 0.8429712327
H 1.635221494 4.3919416978 -0.847189142
H 0.3544192059 -1.7619633758 -1.5470436837
H -0.3720171578 -0.1279951449 -1.3567307851
H -0.8652660284 0.6233239022 2.5921716929
H -2.040132153 0.3851039809 3.9126409859
H -1.6432932747 -2.093070752 3.7714005358
H -0.3933470021 -1.8144076116 2.5493455483
H -0.1713197301 -1.1990334312 4.1903593848
H -5.7998501744 -0.0425952376 -0.7332909416
H -4.5350467617 1.1746261919 -1.0692115286
H -4.3717288982 -1.7507805435 -1.9496150697
H -4.8939896345 -0.4175072761 -2.9954708192
H -3.2408203241 -0.4561468085 -2.370837563
*
