  10
        -13.52395835
 C          1.4780430086        0.5708931661        0.0000336830
 C          0.6729092876       -0.7216118458       -0.0000586300
 C         -0.8006290305       -0.4971122861        0.0000697345
 O         -1.3561072434        0.5749198085       -0.0000356676
 H          2.5424023276        0.3566286749       -0.0011081679
 H          1.2376017684        1.1630670940        0.8795385483
 H          1.2359359935        1.1642836887       -0.8782052829
 H          0.9083652853       -1.3304590212       -0.8766530161
 H          0.9085855377       -1.3308185194        0.8762265732
 H         -1.3975190645       -1.4289831638        0.0002338175
  10
        -13.52383237
 C          1.8272119027        0.3001584148        0.1312494887
 C          0.5813344025       -0.4808176568       -0.2754732373
 C         -0.6622931525        0.0717962501        0.3314509286
 O         -1.7525680217        0.0865773046       -0.1893598262
 H          1.9241869201        0.3291480606        1.2133734651
 H          1.7750158744        1.3205425794       -0.2393968258
 H          2.7128156738       -0.1715606671       -0.2835588506
 H          0.4683323098       -0.5264751031       -1.3595387940
 H          0.6624744281       -1.5083996132        0.0931043226
 H         -0.5322345561        0.4796958605        1.3507728606
  10
        -13.52348153
 C          1.8637349577        0.2866811970       -0.0050143877
 C          0.5745188783       -0.5222240740        0.0111758962
 C         -0.6547064987        0.3222884833       -0.0130914917
 O         -1.7884532297       -0.0975596872        0.0077754153
 H          2.7222034306       -0.3782441171        0.0127190589
 H          1.9171434377        0.9394868293        0.8623687742
 H          1.9209112026        0.8976297890       -0.9021171626
 H          0.5267672658       -1.1976013621       -0.8474521034
 H          0.5225547393       -1.1581088139        0.8989531362
 H         -0.4737723725        1.4117671204       -0.0653151961
