! pbe def2-sv(p) def2/J RI DEFGRID1 loosescf d4 GCP(DFT/SV(P)) printgap
%output
    printlevel normal
end
* xyz 0 1
C 3.0144441797 0.6646671385 -2.8193613696
C 2.4856666322 -0.730183766 -2.5538719167
O 1.6274110634 -0.7753198732 -1.3954811458
P 2.1183001535 -0.5906599317 0.1009421178
S 2.7811525712 1.1456677045 0.7469937001
O 3.2175055721 -1.742482694 0.1748403624
C 4.1796055956 -1.8233568135 1.238630362
C 3.5369963877 -2.2054363869 2.5563841749
S 0.4326903913 -1.3711394821 1.0863390902
C -0.2248533898 0.133196181 1.8961491348
S -1.9951148356 0.3454887606 1.6409985991
P -2.0370476284 1.0583563474 -0.370353018
S -0.3260840477 1.7605140194 -1.0194572131
O -3.1561912412 2.1611711387 -0.4061909085
C -4.5854945393 1.91143807 -0.405457053
C -5.0477413383 1.1835789344 0.8378668955
O -2.6914838238 -0.0815057614 -1.2710762796
C -2.015205313 -1.2898971662 -1.6609881291
C -2.4539113736 -2.4537782639 -0.7931446936
H 3.7075861929 0.9663817891 -2.0359822595
H 3.5276800676 0.6832929737 -3.7753688047
H 2.1904263714 1.3760322827 -2.835952942
H 3.3009477921 -1.4434120858 -2.4105057184
H 1.8346249692 -1.0654715874 -3.363348197
H 4.8849234945 -2.5823680497 0.8976563174
H 4.6828391691 -0.8547498778 1.3237154861
H 4.3116447836 -2.3809243843 3.295777229
H 2.8964273933 -1.3955397242 2.9027598469
H 2.9369942813 -3.1040063136 2.438125652
H 0.3214205999 0.9980079396 1.5104706368
H -0.093842574 0.0306681642 2.9702456325
H -5.009261467 2.9148665424 -0.4671387758
H -4.8309195849 1.3467187419 -1.3064387425
H -4.6198703029 0.1834829848 0.8728517344
H -4.7428144754 1.7231940645 1.7306679422
H -6.1303319036 1.1043896872 0.8193001082
H -2.302501329 -1.4444605967 -2.7031671841
H -0.9326160529 -1.1334512672 -1.6095661086
H -1.9855781303 -3.3617346538 -1.1587200283
H -2.1534628172 -2.2996868469 0.2407556467
H -3.5337736136 -2.5622873758 -0.8380284064
*
