! pbe def2-sv(p) def2/J RI DEFGRID1 loosescf d4 GCP(DFT/SV(P)) printgap
%output
    printlevel normal
end
* xyz 0 1
C 3.3322076799 -1.7185892567 1.5700540808
C 3.0636014837 -2.2632076129 0.1777666779
O 2.7263446172 -1.1960999353 -0.7296715039
C 1.4869886719 -1.0607898794 -1.1450564678
O 0.558183278 -1.7675604634 -0.8056286558
C 1.3550516249 0.0676501375 -2.1472668614
C 0.1983500984 1.0090951434 -1.8096276231
H 0.0584840858 1.71324127 -2.6358014949
C 0.4284965646 1.8170005692 -0.5454804179
O -0.444559933 1.984973892 0.284255431
O 1.6325916986 2.313674521 -0.4915917704
C 2.021279562 3.0779213924 0.6714699662
C 2.6613349375 2.1694242918 1.7068024169
S -1.4133763562 0.1664260363 -1.6603142338
P -1.6226943752 -0.2757187068 0.4206160398
S -0.2370358925 -0.502643272 1.7876273033
O -2.7407094812 0.7099025653 0.964545303
C -3.9771113649 0.9680093885 0.2800776932
O -2.5407094868 -1.5930530681 0.2829622059
C -2.0426467966 -2.9045737077 0.0314354021
H 3.637391089 -2.5335946193 2.2176203228
H 4.1203479956 -0.9725036555 1.5368993617
H 2.4290354676 -1.267389646 1.9772856338
H 2.2394412979 -2.9813960664 0.1935191059
H 3.9589965398 -2.7212394816 -0.2464767808
H 1.1568119605 -0.3847135124 -3.1208422821
H 2.2889810122 0.6279076929 -2.1797979611
H 2.7309077339 3.8106548569 0.2869591564
H 1.1358527943 3.5723583051 1.0789380789
H 1.9427283894 1.4274812914 2.0526602754
H 3.5161059955 1.6557296148 1.2764203618
H 2.986430738 2.7627048155 2.5545836371
H -3.7786234645 1.3760828233 -0.7113042014
H -4.492885865 1.6975423497 0.8992734356
H -4.5557095221 0.0490915087 0.1975966008
H -2.87158219 -3.576156422 0.2413320582
H -1.1982729023 -3.1163222776 0.6882613546
H -1.7217506022 -2.9908791723 -1.005748392
*
