  19
        -27.29166230
 C         -3.0115101930       -0.9957021757        0.0435354039
 C         -1.5895756697       -0.4928078950       -0.1800605180
 C         -1.4583189463        0.9845723612        0.1874740713
 C         -0.1090712189        1.5942845879       -0.1904753735
 C          1.0608637764        0.9839104521        0.5791108199
 N          1.4982399966       -0.2869433179        0.0074719403
 O          1.8004350572       -1.1784760175        0.7783836961
 O          1.5732410778       -0.3877293901       -1.1984930934
 H         -3.7135033071       -0.4426138072       -0.5760582109
 H         -3.0870694581       -2.0503943003       -0.2092792329
 H         -3.2992302970       -0.8710042792        1.0849507571
 H         -1.3152591597       -0.6349285266       -1.2287294205
 H         -0.9089845968       -1.0970717855        0.4249289492
 H         -1.6275693339        1.1044968578        1.2594399553
 H         -2.2392768767        1.5411659727       -0.3336535312
 H         -0.1353097880        2.6624990683        0.0211212897
 H          0.0710361878        1.4636018981       -1.2591002788
 H          0.8217846437        0.8044942011        1.6282013288
 H          1.9254334160        1.6506912729        0.5146917319
