! pbe def2-sv(p) def2/J RI DEFGRID1 loosescf d4 GCP(DFT/SV(P)) printgap
%output
    printlevel normal
end
* xyz 0 1
C 3.896614394 2.6835608253 0.5385310798
C 2.8183864899 2.0359200953 -0.3060575575
O 1.7565551935 1.5090510233 0.5327319603
P 1.6727677848 -0.0192355052 0.912198445
S 0.3106465973 -0.4401682655 2.2472058816
O 3.1670854262 -0.2932293557 1.4064128581
C 3.5278828574 -1.4309397143 2.2037700404
C 3.3535299016 -2.7419648991 1.4637072171
S 1.5822776998 -1.0490755766 -0.9650150249
C 0.076235025 -2.0278776232 -0.7407567459
S -1.2673794766 -1.5935008138 -1.8953295883
P -2.172509079 -0.0120565427 -0.8488695102
S -3.7324662224 0.8212513694 -1.6856507185
O -0.975748545 1.0006200926 -0.5016259303
C -0.7793856354 2.1824360034 -1.2971363157
C -0.1886810902 1.8543763388 -2.6542818047
O -2.4326112774 -0.7428978236 0.5333377524
C -3.4283672988 -0.2822215013 1.4693154132
C -3.1041239039 1.0885780969 2.022947819
H 4.3844450066 1.9423092174 1.1651409144
H 4.6323448758 3.1390658009 -0.1169109532
H 3.4608510175 3.4487329399 1.1751988204
H 3.2252806198 1.2253950545 -0.9164556394
H 2.3300319669 2.7705053241 -0.9489996254
H 4.5740052075 -1.2512774808 2.4559941494
H 2.9202480268 -1.4205958542 3.1141142893
H 3.8553460094 -2.704048485 0.5001204639
H 3.7760885729 -3.5455582557 2.0583886612
H 2.294844742 -2.9435775316 1.3062810471
H -0.2777360902 -1.9106240723 0.2857161783
H 0.3177376894 -3.0625208272 -0.9683751149
H -1.7468655036 2.6817342294 -1.4151067563
H -0.1168300901 2.8013927222 -0.6912820023
H 0.7334536478 1.2874384915 -2.5483526048
H -0.89956088 1.259246369 -3.2280332677
H 0.0120785496 2.7755211627 -3.1918313356
H -4.3970037825 -0.2745990662 0.9597646738
H -3.4179362627 -1.0440749371 2.2497283225
H -3.8287056337 1.348281588 2.7880179547
H -2.1060240239 1.0897580977 2.4550206201
H -3.1468679552 1.830392901 1.2258810807
*
