! r2scan-3c def2/J RI DEFGRID2 scfconv6 printgap
%output
    printlevel normal
end
* xyz 0 1
C 5.7402709654 -1.1592296412 -0.1622330503
C 4.5309991611 -1.4049127445 0.7191913631
O 3.6921725572 -0.2322057361 0.7719597955
P 2.4077295631 -0.0649791446 -0.1535251058
S 2.6886148255 -0.3899805648 -2.0709495773
O 1.9402535749 1.3871429916 0.2636892624
C 2.3438940484 2.5727764747 -0.4602474474
C 1.2466391238 3.0190612216 -1.4052639573
S 0.9693903257 -1.2736978335 0.7987445502
C -0.1935031794 -1.3528000289 -0.5910284129
S -1.0228402424 0.2250912409 -0.9376184693
P -2.6513441624 -0.0122439484 0.4144754087
S -3.9694351779 1.4336941753 0.4616585306
O -1.9665498271 -0.4030238276 1.7928621079
C -1.7600201889 0.5627561603 2.8384102352
C -0.7887288266 1.6549130097 2.4367821265
O -3.2206707512 -1.460589804 0.0842079191
C -4.3082516038 -1.6459630634 -0.8393757682
C -3.8967034146 -1.373179046 -2.2728599109
H 5.4275479352 -0.9835639011 -1.1892518167
H 6.2895864644 -0.2912922939 0.1914377193
H 6.3867577629 -2.0303317449 -0.1337331206
H 4.8225977052 -1.5844142711 1.7555133907
H 3.9455546083 -2.2529014597 0.3530487071
H 2.534512359 3.3174797826 0.3137615257
H 3.2671301454 2.364321322 -1.0073997646
H 0.3187551907 3.1742600326 -0.861692111
H 1.542831042 3.9466762348 -1.8841456749
H 1.0754552182 2.2624291236 -2.1682834575
H -0.933366715 -2.1078026824 -0.337354546
H 0.3567162946 -1.6128042339 -1.4956220061
H -2.7291433771 0.9973219573 3.1027485777
H -1.3773469285 -0.0313678366 3.6693308556
H -1.1964690759 2.219817551 1.5979828751
H -0.6405227201 2.3288663695 3.274490569
H 0.1701414875 1.2334081531 2.1443144699
H -4.6012627428 -2.6867408915 -0.693991043
H -5.1294645943 -0.9847715742 -0.5452808787
H -4.7284177308 -1.6006163118 -2.9320307055
H -3.6314036385 -0.3228562329 -2.3905400553
H -3.0422696075 -1.9852593563 -2.5507826623
*
