  19
        -26.30115154
 C         -2.5604943254        0.6238286285        0.0002853063
 C         -1.2263098195       -0.0573039535       -0.0001346328
 C         -1.1500408418       -1.4445895055       -0.0002288098
 C          0.0749551954       -2.0833037468       -0.0000582329
 C          1.2408577575       -1.3406090289        0.0001981186
 C          1.1788746097        0.0467902442        0.0000756798
 C         -0.0563723255        0.7022499222       -0.0001182350
 C         -0.1092116510        2.2005513621       -0.0001654839
 O          2.3171192738        0.8043385986        0.0000614500
 H         -2.6654700211        1.2562341352        0.8804025244
 H         -2.6648848040        1.2592696329       -0.8777080208
 H         -3.3638898077       -0.1075393948       -0.0010532805
 H         -2.0592057809       -2.0274752211       -0.0004323255
 H          0.1264354992       -3.1616514107       -0.0001395350
 H          2.2012086796       -1.8366413235        0.0003908345
 H         -0.6372895252        2.5636364443       -0.8805717017
 H         -0.6359840616        2.5637280577        0.8809961068
 H          0.8969893582        2.6086565107       -0.0009568016
 H          3.0962306102        0.2299065940       -0.0001599434
  19
        -26.29987636
 C         -2.5851761308        0.5999232177       -0.0006900436
 C         -1.2343707398       -0.0544491605        0.0001838428
 C         -1.1492929906       -1.4431541737        0.0001105224
 C          0.0746773820       -2.0824494842        0.0001888095
 C          1.2413324302       -1.3398999257       -0.0000141517
 C          1.1707864832        0.0452983266        0.0000739530
 C         -0.0652830228        0.7031383358        0.0009239596
 C         -0.0485377745        2.2031713803        0.0003135401
 O          2.2949806305        0.8205067861       -0.0005410882
 H         -2.7140914787        1.2174449220        0.8865961165
 H         -2.7058072147        1.2325694182       -0.8782415971
 H         -3.3678537229       -0.1537995905       -0.0104552292
 H         -2.0567294616       -2.0287855442       -0.0003429966
 H          0.1251129818       -3.1608356701       -0.0002120785
 H          2.2029653797       -1.8332525947       -0.0006108324
 H          0.5225455416        2.5610961758        0.8560265914
 H          0.4582416093        2.5622809462       -0.8948168262
 H         -1.0458758539        2.6241728004        0.0369298947
 H          3.0855241348        0.2616710659        0.0007216653
  19
        -26.29936356
 C         -2.5880530777        0.5861276355       -0.0000575094
 C         -1.2256693010       -0.0450977830        0.0002603138
 C         -1.1494549726       -1.4350391537        0.0000568432
 C          0.0705726529       -2.0789400563       -0.0001536326
 C          1.2383003594       -1.3377726990       -0.0000714172
 C          1.1772870747        0.0484867843        0.0000667327
 C         -0.0564225907        0.7122981060        0.0001017957
 C         -0.0765294312        2.2145340265       -0.0002515376
 O          2.3189734235        0.8013075335        0.0001777829
 H         -3.1468032869        0.2562770498        0.8743221386
 H         -2.5389170249        1.6684639152        0.0086175134
 H         -3.1397742499        0.2702641655       -0.8840836330
 H         -2.0630720953       -2.0110264082       -0.0000473449
 H          0.1189757401       -3.1573920500       -0.0003862983
 H          2.1981647137       -1.8346935974       -0.0000926082
 H         -0.5877657301        2.5923291697       -0.8840764667
 H         -0.5861836687        2.5928566758        0.8842653212
 H          0.9411581519        2.5934642064       -0.0012111175
 H          3.0954742264        0.2233127716        0.0004472820
  19
        -26.29791773
 C         -2.5873180681        0.5776040429       -0.0007506354
 C         -1.2286467239       -0.0621186701       -0.0000210182
 C         -1.1360466907       -1.4487554992        0.0000841341
 C          0.0922835874       -2.0826445310        0.0004518200
 C          1.2508843794       -1.3330883304        0.0002016820
 C          1.1739979607        0.0541596618       -0.0000713713
 C         -0.0634584254        0.7070796388        0.0003661019
 C         -0.0912908175        2.2127241386        0.0009473085
 O          2.3577069679        0.7359417014       -0.0007585460
 H         -2.7217406661        1.2002771229       -0.8836374841
 H         -3.3595700106       -0.1866736539       -0.0023936395
 H         -2.7237657617        1.1983136971        0.8832297934
 H         -2.0402584466       -2.0393020900       -0.0000877381
 H          0.1489897401       -3.1604983714        0.0007152122
 H          2.2258877766       -1.7947502381        0.0001101836
 H          0.4007473407        2.6050975598       -0.8896827347
 H         -1.1081919756        2.5857722861        0.0087511796
 H          0.4139809485        2.6045660021        0.8843302434
 H          2.1975218672        1.6910119132       -0.0036896804
  19
        -26.29773637
 C         -2.6164369279        0.5524468417        0.0003471129
 C         -1.2355777253       -0.0392777217       -0.0001878399
 C         -1.1487799545       -1.4318731846       -0.0001217366
 C          0.0689261458       -2.0768113144       -0.0000411468
 C          1.2381713983       -1.3357633094        0.0000733430
 C          1.1678061616        0.0473498409        0.0000074477
 C         -0.0669388831        0.7160240575       -0.0004970357
 C         -0.0035411621        2.2156768745       -0.0001224759
 O          2.2944820477        0.8191913334        0.0002370291
 H         -3.1600001957        0.2102266619        0.8795256512
 H         -2.6126591749        1.6359798269        0.0023175036
 H         -3.1597852839        0.2129124138       -0.8800779412
 H         -2.0612962396       -2.0097060833        0.0000727907
 H          0.1159409422       -3.1553237554        0.0001158817
 H          2.1992514152       -1.8301002180        0.0002887841
 H          0.5653122080        2.5534473256       -0.8654746419
 H         -0.9816696426        2.6807259115       -0.0202649625
 H          0.5299507270        2.5549600327        0.8871085808
 H          3.0829385488        0.2573448682       -0.0009113615
  19
        -26.29746400
 C         -2.5603590926        0.6023237791       -0.0036295454
 C         -1.2167807897       -0.0620783726       -0.0003066934
 C         -1.1358256172       -1.4470503063       -0.0000877744
 C          0.0923415542       -2.0826809439        0.0023981274
 C          1.2491467975       -1.3327577129        0.0016650973
 C          1.1847143700        0.0577155856       -0.0000897427
 C         -0.0506269354        0.7115836833        0.0022271240
 C         -0.1737179146        2.2098857048        0.0052000921
 O          2.3871320883        0.7061133091       -0.0047888749
 H         -2.6854094223        1.2228527031        0.8824285503
 H         -2.6708982676        1.2430593056       -0.8769478200
 H         -3.3516312181       -0.1418565855       -0.0179693072
 H         -2.0429733925       -2.0330020778       -0.0016585682
 H          0.1494718471       -3.1604942384        0.0034596460
 H          2.2235896831       -1.7958682134        0.0012769945
 H          0.7857509549        2.7181048736        0.0496846202
 H         -0.6887982195        2.5440794909       -0.8946740259
 H         -0.7605129203        2.5328885069        0.8638249541
 H          2.2642828517        1.6664336358       -0.0213133630
  19
        -26.29536866
 C         -2.6062920707        0.5413875778       -0.0548937274
 C         -1.2248902726       -0.0476039658        0.0034813381
 C         -1.1355287243       -1.4368920455        0.0126414644
 C          0.0868291537       -2.0771160064        0.0279568651
 C          1.2470034224       -1.3292655621        0.0083560213
 C          1.1754064174        0.0574622546       -0.0070492464
 C         -0.0595517611        0.7207924455        0.0205936990
 C         -0.0822180285        2.2263062291        0.0669435669
 O          2.3690498006        0.7217726191       -0.0509801310
 H         -3.0612352361        0.2913866315       -1.0124739874
 H         -3.2261936132        0.1100322578        0.7289014999
 H         -2.6168258178        1.6197276582        0.0488721217
 H         -2.0457205006       -2.0182615065        0.0066551291
 H          0.1403444769       -3.1549882932        0.0419649532
 H          2.2211807459       -1.7923593391       -0.0012667878
 H         -0.0495133083        2.6481725222       -0.9378207472
 H         -0.9822943792        2.5862092844        0.5544230721
 H          0.7604779608        2.6102499683        0.6399957184
 H          2.2282871085        1.6697427615       -0.1898647166
  19
        -26.29527215
 C         -2.5892854422        0.5615122182        0.0105882272
 C         -1.2158302297       -0.0487651827       -0.0004836248
 C         -1.1352398254       -1.4363364446       -0.0020805402
 C          0.0875959728       -2.0777944634       -0.0055699423
 C          1.2462038547       -1.3296319964       -0.0021419656
 C          1.1834756894        0.0599288905        0.0012540178
 C         -0.0501901139        0.7225468520       -0.0039655163
 C         -0.1420332319        2.2262163278       -0.0134467638
 O          2.3902745806        0.7003032228        0.0105269913
 H         -2.5695305088        1.6440824246       -0.0109328642
 H         -3.1542794419        0.2078745495       -0.8503180706
 H         -3.1210829246        0.2445311586        0.9064316596
 H         -2.0473649007       -2.0146817660       -0.0004701289
 H          0.1414379168       -3.1557467533       -0.0084364076
 H          2.2202381112       -1.7935435609       -0.0007850107
 H         -0.6336241809        2.5795761678        0.8919376715
 H          0.8305171220        2.7078774964       -0.0708890377
 H         -0.7200993933        2.5598900834       -0.8735801079
 H          2.2767757240        1.6614734285        0.0387726852
