  11
        -13.80985270
 C         -2.1291560114       -1.2591446308       -0.1437322741
 C         -1.5045564303       -0.0000124752        0.4155394044
 C         -2.1284428483        1.2594732290       -0.1436914104
 I          0.6670253414       -0.0000401046       -0.0106801214
 H         -2.0472288824       -1.2851318170       -1.2284118818
 H         -1.6574818001       -2.1510668507        0.2623535123
 H         -3.1848130731       -1.2767602296        0.1227874613
 H         -1.5428746224       -0.0000379333        1.5044816644
 H         -3.1844766774        1.2769843761        0.1213178927
 H         -2.0448711537        1.2862274810       -1.2282283739
 H         -1.6573817126        2.1510673693        0.2637357479
