  23
        -28.29980879
 C          3.5895822969       -1.7473246707       -0.1286785013
 C          3.1719646444       -0.3379822802        0.2741421883
 C          1.7671118828       -0.0003697631       -0.2201287342
 C          1.3465848159        1.4133193040        0.1750314991
 C         -0.0645438483        1.7442408326       -0.3266616411
 C         -1.0895189215        0.8918518512        0.3214466886
 C         -2.0359473430        0.1976002373       -0.3228559168
 C         -3.0062127770       -0.6074950164        0.3795665434
 O         -3.8913560927       -1.2629597924       -0.1412965989
 H          2.9025352264       -2.4817108993        0.2861271025
 H          4.5898973567       -1.9691725831        0.2347963002
 H          3.5864784652       -1.8512037261       -1.2114145230
 H          3.8825108130        0.3818613258       -0.1380075509
 H          3.2036486255       -0.2485523740        1.3622547374
 H          1.7367435607       -0.0968894279       -1.3077576652
 H          1.0552815495       -0.7197480564        0.1926645373
 H          1.3799057180        1.5112436505        1.2616566509
 H          2.0514615819        2.1308317529       -0.2476379644
 H         -0.1121929517        1.6399038378       -1.4109383189
 H         -0.2840178278        2.7848562518       -0.0716803714
 H         -1.0477641068        0.8441269698        1.4030086798
 H         -2.1132276762        0.2110336315       -1.4008387978
 H         -2.9022550370       -0.6052570863        1.4809895375
