! pbe def2-sv(p) def2/J RI DEFGRID1 loosescf d4 GCP(DFT/SV(P)) printgap
%output
    printlevel normal
end
* xyz 0 1
C 4.4794860815 -1.7436160596 -0.7922495644
C 4.6148634158 -0.3435735868 -0.2288531232
O 3.4641706752 0.0515123028 0.5371719619
P 2.0402951778 0.3142763662 -0.1244664803
S 2.1167708068 1.1713040494 -1.8905232282
O 1.309743216 1.0959406495 1.0442343951
C 1.3625622448 2.5291073963 1.1698205064
C 2.7586212405 3.0264683365 1.4772389358
S 1.108127183 -1.5620667428 0.0132636176
C -0.0383036587 -1.4759703156 -1.407922035
S -1.762534815 -1.6934871787 -0.9314389669
P -1.9996102207 0.1195036596 0.153191942
S -1.3558092637 1.6870984192 -0.8339631582
O -1.2964289568 -0.0238396159 1.5541215742
C -1.7966111506 -0.7711250461 2.6932319532
C -1.90102186 -2.2568877006 2.4218427055
O -3.5342257533 0.1551343749 0.5538946535
C -4.57814491 0.4404826013 -0.3977954256
C -5.1869080675 -0.8378427472 -0.9393132669
H 3.7004687874 -1.7638444917 -1.5531300923
H 5.4204215195 -2.0390284501 -1.245183666
H 4.2198518695 -2.4455644987 -0.0039121831
H 4.7558803056 0.3815911748 -1.0369163652
H 5.4381210586 -0.2731552565 0.4832972449
H 0.9831858205 2.971095104 0.2418343424
H 0.6633947615 2.7423902964 1.9801705754
H 2.7214182789 4.0931269534 1.6754444914
H 3.1589594916 2.5071334415 2.3441146392
H 3.4119310971 2.8480890993 0.6238769277
H 0.1930943458 -2.2993201369 -2.0785988999
H 0.0943247795 -0.5115168636 -1.9061591206
H -1.056812487 -0.5569314917 3.4663577643
H -2.7644432653 -0.3516422645 2.9731178645
H -2.1521990412 -2.7639219977 3.348384948
H -2.6770153088 -2.4578465893 1.6866448191
H -0.9537110193 -2.641905516 2.0501802286
H -5.3116068962 1.0197926537 0.1663688871
H -4.1659167679 1.0620500885 -1.1990874919
H -5.565236377 -1.4450839272 -0.1220124105
H -6.0057862874 -0.5834899314 -1.6045260494
H -4.4455063629 -1.4121195633 -1.4902984521
*
