! pbe def2-sv(p) def2/J RI DEFGRID1 loosescf d4 GCP(DFT/SV(P)) printgap
%output
    printlevel normal
end
* xyz 0 1
C 5.4746932348 -1.2172699407 -1.5171782829
C 4.0408127931 -1.3221830224 -1.9996564692
O 3.1520609661 -1.6054007823 -0.899227965
P 2.3474159415 -0.4613427433 -0.1427903686
S 3.4048391596 1.0726396121 0.4793601102
O 1.6137438935 -1.307425164 0.9721266551
C 2.1277142881 -1.4156856963 2.3245499135
C 1.44645104 -0.41927541 3.2402041741
S 0.7800872381 -0.0131675796 -1.4869835449
C 0.1861295983 1.4615103383 -0.6099365443
S -0.863440536 1.0548994544 0.7984051966
P -2.5215002543 0.3583171213 -0.354173233
S -2.8423741628 1.380555019 -1.9941967004
O -3.7300873167 0.2935290924 0.673976834
C -4.5911514737 1.4199789817 0.9257345779
C -3.8628540882 2.5645407104 1.5990853308
O -2.2593818579 -1.1659931321 -0.6709972476
C -2.529904362 -2.2825241933 0.2105038145
C -1.728240837 -2.2181150032 1.4928178411
H 6.1288173618 -1.070145887 -2.370433329
H 5.5828990624 -0.3741159279 -0.8384279408
H 5.7601114666 -2.1270095233 -0.9966854233
H 3.9107427526 -2.1621658255 -2.6844545031
H 3.7235759865 -0.3991674916 -2.4933987235
H 1.9128320353 -2.4444217586 2.6166746871
H 3.2085077454 -1.2542558579 2.3099043566
H 0.3691320509 -0.5508082509 3.2113837652
H 1.8031190427 -0.5691083822 4.2540019084
H 1.6790699365 0.5967429186 2.9286378992
H -0.388417388 2.043948312 -1.3309410102
H 1.0403691852 2.0245563892 -0.2313778116
H -5.0196119594 1.7451196436 -0.0271513045
H -5.3734177503 1.0078658746 1.5648252268
H -3.3387217142 2.2148003928 2.4847637413
H -3.1395439614 3.001410097 0.9124279825
H -4.5814092111 3.3269609676 1.8822700174
H -3.6016361808 -2.2997173012 0.4181736144
H -2.2528947522 -3.1471981075 -0.3948525514
H -2.0351290895 -1.3564111177 2.0829133206
H -1.9036930595 -3.1229492835 2.066437451
H -0.6673416772 -2.1361039134 1.268394967
*
