! r2scan-3c def2/J RI DEFGRID2 scfconv6 printgap
%output
    printlevel normal
end
* xyz 0 1
C 5.4671512507 -1.8278729326 -1.8119393413
C 4.3643302006 -0.7896891078 -1.7584691436
O 3.3380207656 -1.2737681548 -0.8690972367
P 2.3544838748 -0.2949381212 -0.0953311048
S 3.2360385074 1.245146406 0.7454942276
O 1.6094043438 -1.3074681545 0.862941833
C 2.0693672076 -1.5737072072 2.2128026143
C 1.2346662733 -0.8023749607 3.2144157776
S 0.8502153489 0.1351924506 -1.5131280369
C 0.1300272679 1.5377219853 -0.6103391903
S -0.890631647 1.018498079 0.7829851879
P -2.5147093115 0.2647315748 -0.3827763162
S -2.8398810563 1.174498998 -2.0845274685
O -3.7519906128 0.2575197553 0.6145332697
C -4.6265000549 1.388835245 0.7673697425
C -3.93096881 2.5731998322 1.4071636754
O -2.2339245035 -1.2695965074 -0.6093772343
C -1.6771290429 -2.2157167906 0.3345307482
C -2.4032840745 -2.2242084066 1.6621378758
H 5.9076247478 -1.957678558 -0.8273895076
H 5.0635325053 -2.7792630354 -2.1460140734
H 6.2329534804 -1.4975746163 -2.5060346269
H 3.9127440392 -0.6347672957 -2.741677551
H 4.7349849923 0.1683839196 -1.3779813905
H 1.9571813623 -2.6516522235 2.3360995366
H 3.1248215366 -1.3008406218 2.2919054594
H 0.1834909001 -1.0494775503 3.1004910215
H 1.5592271176 -1.0559643684 4.2183375912
H 1.3579471427 0.2675680986 3.0597711022
H -0.4849280267 2.0832759929 -1.3268445299
H 0.9317913914 2.1600342069 -0.2115594206
H -5.0169034041 1.6597053036 -0.2186079858
H -5.4339377032 1.008997765 1.3948622375
H -3.1820473017 2.9773947436 0.7279115936
H -4.6631623297 3.3455660353 1.6195938144
H -3.4429139259 2.2741945754 2.3312057779
H -1.7757038583 -3.1696834827 -0.1860466199
H -0.6172660223 -1.9812815233 0.4661845154
H -3.4643696457 -2.4030007662 1.5092014084
H -1.9919838291 -3.0127186309 2.2853270476
H -2.2796165582 -1.2672380768 2.1660346577
*
