! pbe def2-sv(p) def2/J RI DEFGRID1 loosescf d4 GCP(DFT/SV(P)) printgap
%output
    printlevel normal
end
* xyz 0 1
C 4.8367836695 0.0841547723 -1.4031525873
C 4.024184804 1.3588383487 -1.322431298
O 3.2903027375 1.4734525108 -0.0816486306
P 2.1824533981 0.4892468563 0.4738609665
S 1.2899432678 1.3509184462 1.982448646
O 2.9064810481 -0.8872436166 0.8368528141
C 2.9462726662 -1.4590877185 2.1592453745
C 1.9737843995 -2.6140984235 2.2910168777
S 1.1135690095 -0.013448102 -1.2961565321
C 0.2378059056 -1.4844989495 -0.7003984811
S -0.9858849172 -1.1351099942 0.5885569975
P -2.3391874217 -0.0651808929 -0.6588010909
S -2.4658939243 -0.6910544047 -2.50525191
O -1.8992392805 1.4484265913 -0.581174982
C -1.9563239821 2.2359659762 0.6349411036
C -1.2716253708 3.5558236036 0.3537787172
O -3.693315168 -0.054929867 0.1748448756
C -4.676853582 -1.1025005105 0.0704066817
C -4.1620383432 -2.4332560438 0.5783745352
H 4.1790499951 -0.781734392 -1.4256927763
H 5.4311541182 0.1011106849 -2.3114394219
H 5.497445798 0.0042886492 -0.5438324267
H 3.3131918194 1.4242109518 -2.1499370737
H 4.662563123 2.2440378851 -1.3159814155
H 3.9773771683 -1.7931312121 2.2860075727
H 2.7192554156 -0.6777515944 2.8912587543
H 2.1759797485 -3.370524417 1.5373612214
H 2.0897251336 -3.0573933901 3.2747892593
H 0.9482870715 -2.261907312 2.1862828473
H 0.9491155785 -2.1941611882 -0.287084592
H -0.2715829508 -1.8921110226 -1.5747370032
H -3.005992631 2.3717755889 0.9005768
H -1.4461938924 1.6906370233 1.4350466783
H -1.7436054205 4.0510158039 -0.4899210423
H -1.3418152954 4.1844713077 1.2353687962
H -0.2215621462 3.3898813424 0.124307013
H -5.5081769181 -0.7342456916 0.6732507301
H -4.9818375491 -1.1821669357 -0.9773654057
H -3.7486657135 -2.3237163731 1.5780266622
H -4.9802686387 -3.145779241 0.6022874568
H -3.3859655564 -2.8105086866 -0.0857408389
*
