! pbe def2-sv(p) def2/J RI DEFGRID1 loosescf d4 GCP(DFT/SV(P)) printgap
%output
    printlevel normal
end
* xyz 0 1
C 2.2045096235 -3.7241492258 0.7127601443
C 2.7775222568 -2.3206888177 0.6737852623
O 2.3306144827 -1.678436867 -0.5356015904
C 2.0728012139 -0.3927720213 -0.5275963125
O 2.1778449038 0.33961832 0.4361115996
C 1.6461259273 0.1103511081 -1.8942579724
C 0.3435459237 0.9104555644 -1.801888572
H 0.232319177 1.5361853456 -2.6902036437
C 0.3147981718 1.7946089842 -0.568937671
O -0.4706069686 1.60462973 0.345543449
O 1.1470940072 2.7845976669 -0.6609475922
C 1.3196120151 3.6902965282 0.4531839204
C 2.7557148276 3.6083919919 0.9386872261
S -1.1373167117 -0.1581527124 -1.7919604484
P -1.7068433985 -0.4831593652 0.2257175104
S -0.4925788361 -1.0879879585 1.6506214025
O -2.872086936 0.5343671488 0.5989614124
C -2.869429939 1.4039805186 1.7308776623
O -2.7392719477 -1.6698641988 -0.1342114558
C -2.2920429835 -2.9839853973 -0.4666441258
H 1.1233885828 -3.6774824888 0.8139342026
H 2.4565507975 -4.2546440644 -0.2002407391
H 2.6137976718 -4.2532355231 1.56649139
H 3.8704606409 -2.335269101 0.6445862296
H 2.4415880772 -1.7271070308 1.5294671179
H 1.5247144603 -0.7285505073 -2.5773300635
H 2.4361339475 0.7723374659 -2.2551332634
H 1.0834474101 4.6827588204 0.0641663806
H 0.6167411604 3.4147415825 1.2427560281
H 3.4373164825 3.8926060562 0.1429593872
H 2.8869959096 4.2764292586 1.7832172015
H 2.9777502659 2.5899181313 1.2488626931
H -2.7207742141 2.4269171397 1.3888365327
H -2.0728334989 1.1280726273 2.424467948
H -3.8408342315 1.2925645975 2.2086759887
H -1.8510331355 -2.9945978978 -1.4638335901
H -3.1789104464 -3.6117665498 -0.4349449667
H -1.5601216024 -3.3246490754 0.2691508334
*
