! pbe def2-sv(p) def2/J RI DEFGRID1 loosescf d4 GCP(DFT/SV(P)) printgap
%output
    printlevel normal
end
* xyz 0 1
C 1.6553002549 -1.3069503016 -2.6430826577
C 2.3529277449 0.0161019317 -2.4112236731
O 1.974101926 0.6298669124 -1.1540517319
P 2.1966992376 -0.0028555026 0.2724272087
S 2.3832515828 1.3107800674 1.7140239566
O 3.5080110721 -0.8699514103 0.0210794582
C 4.2979179104 -1.4169524558 1.0930919078
C 3.889358098 -2.8409360832 1.4162414171
S 0.6763531377 -1.4570130971 0.6028290367
C -0.3169508231 -0.6452974517 1.8910392495
S -2.0618875902 -0.521498606 1.4462301319
P -1.8534388312 0.6899916863 -0.2906599512
S -0.5984517057 2.1835986493 -0.0828137768
O -3.3566043237 1.0943252376 -0.5996179187
C -4.0726266872 2.008819764 0.2560967161
C -5.3048631317 2.4748475029 -0.4920897007
O -1.4924743858 -0.2121192432 -1.5290130909
C -2.3789939289 -1.175568169 -2.1644768649
C -2.3814335126 -2.5070776657 -1.4412225522
H 1.973922847 -2.0364830952 -1.9003412707
H 0.5793666666 -1.1751879503 -2.5681443217
H 1.9070943768 -1.6723902049 -3.6336667721
H 2.0542936763 0.7646071138 -3.1472125411
H 3.438253945 -0.1020704895 -2.4171320906
H 5.323217561 -1.3762379554 0.7204287664
H 4.2035210587 -0.763382407 1.9667453
H 4.5673235055 -3.2384160228 2.1646240718
H 2.8744863709 -2.872114178 1.8039875915
H 3.9422980865 -3.4563107013 0.5225281545
H 0.0985569072 0.3510334057 2.0682959733
H -0.2803619761 -1.2508906276 2.7929973227
H -4.3376595853 1.4782019114 1.1742853528
H -3.4096138552 2.8444495399 0.5032590145
H -5.8621785364 3.1619470299 0.1359103164
H -5.0157980671 2.9814859606 -1.4086268139
H -5.9328981144 1.6244508753 -0.7403979897
H -3.3792538407 -0.7448852547 -2.2155714453
H -1.9654968829 -1.2690772408 -3.1703208851
H -2.8838826284 -2.4252606487 -0.4810017963
H -2.9055955417 -3.2344022201 -2.0531923603
H -1.3627102189 -2.8484855133 -1.2733592874
*
