! pbe def2-sv(p) def2/J RI DEFGRID1 loosescf d4 GCP(DFT/SV(P)) printgap
%output
    printlevel normal
end
* xyz 0 1
C 4.25233504 -1.0694878067 -1.6460257786
C 4.4799329109 0.2924657805 -1.0222675319
O 3.6611265668 0.5078207049 0.1381827319
P 2.0715502453 0.5894961685 0.0598029066
S 1.3841847725 1.5128058881 -1.5272787889
O 1.7313352773 1.3301030511 1.4125739107
C 2.5452209949 1.272120692 2.6133385102
C 2.6881536932 -0.1329647206 3.1600233097
S 1.4106061372 -1.4219538124 0.32282272
C 0.238166024 -1.6193423609 -1.0500941342
S -1.4352839734 -1.998786406 -0.4776841206
P -2.139574898 0.0050064435 -0.3365169539
S -2.0825734048 1.0620026173 -1.9822124825
O -1.270968899 0.6883314635 0.7962001347
C -1.3268355915 0.2588369242 2.181613325
C -2.2534510083 1.1515539874 2.9795008566
O -3.5474279283 -0.1734911926 0.3741967308
C -4.5543835216 -1.1194762253 -0.0363713843
C -4.9597749205 -0.9554452427 -1.4855144192
H 4.3440086824 -1.8523839716 -0.8975218695
H 3.2568472593 -1.1112551658 -2.0867088225
H 4.9861642645 -1.2308673723 -2.429113599
H 4.2671172949 1.0847997919 -1.7466152003
H 5.4976845963 0.3969064633 -0.6435716237
H 3.5227381488 1.6978955188 2.3803702139
H 2.0124958371 1.9259241272 3.3058894528
H 3.2783559771 -0.0959438111 4.0705109774
H 1.717445595 -0.5679140286 3.3833232554
H 3.1943219917 -0.7682231614 2.4354252393
H 0.5592963544 -2.4680100015 -1.647899095
H 0.2210477451 -0.696828622 -1.6409533414
H -1.6453692857 -0.7867196694 2.2182347731
H -0.2981785322 0.3449506486 2.5336190815
H -3.2705750995 1.0701400853 2.6055614168
H -2.2261028854 0.8498699718 4.0219496509
H -1.933142706 2.1866240487 2.8936259473
H -4.1688323756 -2.1267665857 0.1444354818
H -5.3883054015 -0.9128982517 0.6367501281
H -4.1159782417 -1.1732585318 -2.1386492795
H -5.7709203585 -1.6396089369 -1.712573336
H -5.2826747054 0.0652367788 -1.6766356925
*
