! pbe def2-sv(p) def2/J RI DEFGRID1 loosescf d4 GCP(DFT/SV(P)) printgap
%output
    printlevel normal
end
* xyz 0 1
C 4.3263677698 -3.4773994895 -1.5424425428
C 2.9493061983 -3.0002608844 -1.9762689569
O 2.6614084343 -1.6950334363 -1.4406685355
C 2.1491853317 -1.6138253133 -0.2295277435
O 1.907046984 -2.5598636553 0.4847596276
C 1.8764887447 -0.1712443433 0.1618433469
C 0.9952531058 0.5015194974 -0.8936469374
H 1.5552168527 0.6388914773 -1.8208570434
C 0.4746882998 1.8301148094 -0.3849099726
O -0.7138462972 2.0266391826 -0.2049029774
O 1.4225965892 2.6881319042 -0.1613863757
C 1.075131999 3.9579696405 0.4403798528
C 1.0088786106 3.8266863634 1.9528204464
S -0.45118728 -0.5213866105 -1.3468496212
P -1.7359513397 -0.1604405612 0.2916737458
S -1.1684671978 0.2953740475 2.123997015
O -3.0707079246 0.5673650961 -0.2002819379
C -3.4575431178 1.9099332321 0.0931186231
O -2.2600788846 -1.6789463566 0.2124207311
C -3.250053733 -2.1760352996 1.1151665207
H 4.5397735594 -4.4311283478 -2.0135220983
H 5.0827182761 -2.7548721872 -1.835738644
H 4.3543956302 -3.6038460252 -0.4625227848
H 2.1734409506 -3.6930744053 -1.6384896798
H 2.8941827227 -2.867241561 -3.0566035394
H 2.8211651785 0.369504932 0.2342163322
H 1.3855607985 -0.1766558878 1.1375106607
H 1.8757381503 4.6286693219 0.1303394069
H 0.1157351358 4.2871253628 0.0344352394
H 1.9683418567 3.505109873 2.3473394876
H 0.7479185186 4.7864916888 2.3856078408
H 0.2539411519 3.0956491069 2.2383505361
H -3.1061734006 2.5698414796 -0.6969565114
H -3.0354626379 2.221458949 1.0494503378
H -4.5443878383 1.9020175689 0.1384122176
H -3.2281547979 -3.2577956033 1.0098863564
H -4.2305407995 -1.7825542264 0.8483621842
H -3.0012593765 -1.8902407522 2.1397388272
*
