! pbe def2-sv(p) def2/J RI DEFGRID1 loosescf d4 GCP(DFT/SV(P)) printgap
%output
    printlevel normal
end
* xyz 0 1
C 5.8073601678 -0.5737950356 -0.5518719575
C 4.3368207102 -0.8761928906 -0.7572520521
O 3.5791030878 0.238603655 -0.2511446649
P 2.0525666525 0.4495198084 -0.6517177714
S 1.7478273925 0.4046534516 -2.5842908951
O 1.7559230463 1.8488382527 -0.0038158237
C 1.5017962644 2.1365188846 1.3919777118
C 2.5529621616 1.563593232 2.3166487129
S 1.0816622249 -1.078106694 0.4707833015
C -0.0546040387 -1.7635283229 -0.7777024364
S -1.7398051012 -1.9316081696 -0.1538477585
P -2.0874905112 0.1126933918 0.3180882982
S -1.3314827421 1.4399606497 -0.9166956221
O -1.546614824 0.3349859485 1.7827398004
C -1.5820022455 -0.619433225 2.876410941
C -2.972881387 -1.1437419887 3.1550151733
O -3.6604790773 0.2110698017 0.5086965125
C -4.5633868556 0.4822514308 -0.5757734186
C -4.5993215048 -0.6418938891 -1.5911570829
H 6.0793131727 0.330363008 -1.0892919016
H 6.0140549293 -0.4316253806 0.5046997937
H 6.3967244123 -1.4041651865 -0.9263462673
H 4.0331292348 -1.7716748627 -0.2076040799
H 4.0978988982 -1.0072780778 -1.8183508678
H 1.4884141794 3.227449882 1.4172872253
H 0.5043979299 1.7582283076 1.6358963664
H 3.5403702549 1.90265828 2.0142819169
H 2.3502250012 1.8978107679 3.329468334
H 2.5289328458 0.4751069526 2.2905862358
H 0.2735979094 -2.7674064624 -1.0352463776
H -0.0327687089 -1.1057844262 -1.651655209
H -0.8921950094 -1.4333177949 2.6349345389
H -1.1921787263 -0.0437239582 3.7169451049
H -3.6609892213 -0.3187283307 3.3189739903
H -3.3289081901 -1.7375115709 2.3157077493
H -2.9417216548 -1.7687674963 4.0420809118
H -5.5282046997 0.6109587381 -0.0831875847
H -4.2607612833 1.4203200474 -1.0520088149
H -4.7809640864 -1.593521371 -1.0982776682
H -5.3900581412 -0.450439298 -2.309479259
H -3.6500086915 -0.6948438463 -2.1225009386
*
