  16
  -17.8914553500000       5.080413791681766E-002 !mtd2
 C          1.7138536398        0.9430905663       -0.0013400052
 C          0.7132479359       -0.1778215217        0.0001215376
 C          1.1331093353       -1.4424774737        0.0013535244
 C         -0.7132473222        0.1778509116        0.0001155507
 C         -1.1331247623        1.4424597988        0.0013856911
 C         -1.7138355285       -0.9430905251       -0.0013372056
 H          1.5851035652        1.5678268591       -0.8832382938
 H          2.7251984576        0.5459316539       -0.0030477962
 H          1.5879940151        1.5672886264        0.8813487458
 H          0.4671158749       -2.2857432652        0.0021530672
 H          2.1841899967       -1.6784150235        0.0011480412
 H         -2.1842125848        1.6783595367        0.0009888379
 H         -0.4671680387        2.2857220648        0.0020392141
 H         -1.5856246364       -1.5673557621       -0.8836645092
 H         -1.5874451206       -1.5677784364        0.8809366210
 H         -2.7251908319       -0.5459763507       -0.0022281774
  16
  -17.8914553100000       5.080198753527472E-002 !mtd11
 C          1.7138132113        0.9430681959        0.0004865551
 C          0.7132449037       -0.1778490145       -0.0000209057
 C          1.1331525396       -1.4424734594       -0.0005156469
 C         -0.7132477364        0.1778151844       -0.0001317442
 C         -1.1331309151        1.4424821661       -0.0004545525
 C         -1.7138368329       -0.9430588034        0.0005138392
 H          1.5854093379        1.5680799886        0.8822331391
 H          1.5875222067        1.5670047977       -0.8823536811
 H          2.7251542636        0.5458804375        0.0019381268
 H          0.4671256083       -2.2857693261       -0.0012161586
 H          2.1842396955       -1.6783715159       -0.0004098486
 H         -2.1841992014        1.6784413897       -0.0002648760
 H         -0.4670523210        2.2857632236       -0.0007787064
 H         -2.7251557407       -0.5458271106       -0.0014300587
 H         -1.5854488315       -1.5691800093       -0.8803931060
 H         -1.5875374625       -1.5658344108        0.8841344488
  16
  -17.8914552600000       5.079929968629329E-002 !mtd14
 C          1.7138234623        0.9430710782        0.0028659400
 C          0.7132498008       -0.1778323450       -0.0001106133
 C          1.1331287276       -1.4424867459       -0.0029386803
 C         -0.7132447454        0.1778412994       -0.0001589452
 C         -1.1331429374        1.4424872079       -0.0028948099
 C         -1.7138123516       -0.9430738646        0.0028787010
 H          1.5831055866        1.5682865677        0.8841014336
 H          1.5898681961        1.5667653613       -0.8804822646
 H          2.7251620764        0.5458775913        0.0069720560
 H          0.4670871257       -2.2857916133       -0.0057625876
 H          2.1842127264       -1.6784100067       -0.0031052135
 H         -2.1842256982        1.6783990109       -0.0027557283
 H         -0.4671401003        2.2857724455       -0.0055263261
 H         -1.5844378178       -1.5668892833        0.8853336650
 H         -2.7251855099       -0.5459239787        0.0047809435
 H         -1.5884698981       -1.5681651034       -0.8792848854
  16
  -17.8914551900000       5.079553693655340E-002 !mtd12
 C          1.7139486331        0.9430665240        0.0002594150
 C          0.7132514823       -0.1777858271        0.0002916785
 C          1.1330654875       -1.4424936511       -0.0004774135
 C         -0.7132778441        0.1778791980        0.0001970143
 C         -1.1332363305        1.4424964761       -0.0004206153
 C         -1.7137848350       -0.9431102752        0.0002831068
 H          1.5846693820        1.5696443682        0.8808783924
 H          1.5887910516        1.5654824365       -0.8838188125
 H          2.7252464457        0.5456749426        0.0034940695
 H          0.4669884458       -2.2857491400       -0.0014694770
 H          2.1840833946       -1.6785216572       -0.0003449698
 H         -2.1843363472        1.6782990241       -0.0005575099
 H         -0.4671940256        2.2858369408       -0.0005460169
 H         -1.5867548354       -1.5671245803       -0.8823070944
 H         -1.5859414859       -1.5680445574        0.8821841237
 H         -2.7251539232       -0.5461227524        0.0009001398
  16
  -17.8914551700000       5.079446191652813E-002 !mtd6
 C          1.7138304800        0.9430765938       -0.0037777370
 C          0.7132708170       -0.1778462557        0.0002372164
 C          1.1331563693       -1.4424989986        0.0037449666
 C         -0.7132444910        0.1778207276        0.0002811955
 C         -1.1331487584        1.4424664822        0.0037632889
 C         -1.7138466904       -0.9430524138       -0.0037866716
 H          2.7251973916        0.5459207189       -0.0096685944
 H          1.5912091898        1.5661513792        0.8802134620
 H          1.5816761197        1.5689185545       -0.8843695175
 H          0.4670491078       -2.2857082410        0.0071580837
 H          2.1842528813       -1.6783932067        0.0039944027
 H         -2.1842067240        1.6784676294        0.0041303308
 H         -0.4670767686        2.2857427409        0.0071793813
 H         -1.5835900679       -1.5670864752       -0.8859545363
 H         -1.5895957470       -1.5678508214        0.8786963660
 H         -2.7251266262       -0.5457587198       -0.0068880516
  16
  -17.8914551600000       5.079392441495181E-002 !mtd3
 C          1.7138282110        0.9430878807       -0.0002601400
 C          0.7132622832       -0.1778195400        0.0002217942
 C          1.1331060380       -1.4424943886        0.0001931050
 C         -0.7132247628        0.1778393269        0.0002161524
 C         -1.1331272798        1.4424978355        0.0002251964
 C         -1.7138112436       -0.9430980487       -0.0002574104
 H          1.5864098392        1.5672378203       -0.8827777999
 H          2.7251956515        0.5459077315       -0.0001942096
 H          1.5864890025        1.5678189628        0.8818514818
 H          0.4668659089       -2.2856602615       -0.0002626677
 H          2.1841550108       -1.6785631640       -0.0008564543
 H         -2.1842322864        1.6783522436       -0.0000328744
 H         -0.4671510714        2.2858545477       -0.0010211854
 H         -2.7251913945       -0.5459511183       -0.0009405135
 H         -1.5859245511       -1.5680180110       -0.8821607887
 H         -1.5870122967       -1.5671344547        0.8823587995
  16
  -17.8914551500000       5.079338691906327E-002 !mtd11
 C          1.7138358196        0.9430835251       -0.0044476751
 C          0.7132435068       -0.1778211877        0.0002628068
 C          1.1331001084       -1.4424837214        0.0044260832
 C         -0.7132459268        0.1778292619        0.0001920534
 C         -1.1331267835        1.4424786162        0.0044761434
 C         -1.7138083454       -0.9430868942       -0.0044297964
 H          2.7251901364        0.5459370853       -0.0081844484
 H          1.5901211836        1.5679724410        0.8780737984
 H          1.5829215105        1.5671549525       -0.8864744668
 H          0.4670511869       -2.2857745326        0.0085720544
 H          2.1841797103       -1.6784296925        0.0046286510
 H         -2.1842087603        1.6783949096        0.0050464653
 H         -0.4670995695        2.2857734845        0.0088627022
 H         -1.5916156932       -1.5663695060        0.8794575892
 H         -2.7251503881       -0.5459173428       -0.0106031794
 H         -1.5813700021       -1.5687370300       -0.8850946720
  16
  -17.8914550400000       5.078747484023870E-002 !md7
 C          1.7138325474        0.9430591381        0.0044706039
 C          0.7132613280       -0.1778441434       -0.0001945931
 C          1.1331436830       -1.4424715502       -0.0045560508
 C         -0.7132569913        0.1778386752       -0.0003065038
 C         -1.1331596259        1.4424662431       -0.0044946414
 C         -1.7138246908       -0.9430484041        0.0044982589
 H          1.5922448139        1.5656647482       -0.8799607102
 H          2.7250881586        0.5457992797        0.0116704304
 H          1.5807455041        1.5693571099        0.8845291219
 H          0.4671093966       -2.2858037411       -0.0089040107
 H          2.1842396929       -1.6783213332       -0.0047406655
 H         -2.1842496631        1.6783636224       -0.0034777219
 H         -0.4671034432        2.2857656100       -0.0090630619
 H         -1.5818765040       -1.5678145231        0.8858386106
 H         -2.7250793521       -0.5458123083        0.0097221826
 H         -1.5910739210       -1.5671979725       -0.8786675259
  16
  -17.8914550000000       5.078532516399211E-002 !gc
 C          1.7138737909        0.9430488951       -0.0064549101
 C          0.7132525197       -0.1778077403        0.0003994213
 C          1.1330690378       -1.4424838336        0.0064648715
 C         -0.7132530377        0.1778748928        0.0003220474
 C         -1.1332004056        1.4424800440        0.0065168559
 C         -1.7137504117       -0.9430874651       -0.0064354295
 H          2.7251834406        0.5457858397       -0.0108530212
 H          1.5911780084        1.5688186850        0.8755837359
 H          1.5819663503        1.5661892534       -0.8890040286
 H          0.4670000969       -2.2857390860        0.0125028625
 H          2.1841439631       -1.6784396028        0.0066840224
 H         -2.1842906105        1.6783480958        0.0066758966
 H         -0.4671963584        2.2857895005        0.0124889785
 H         -2.7250875502       -0.5459464389       -0.0150958873
 H         -1.5791422445       -1.5689719744       -0.8866035752
 H         -1.5936537235       -1.5661297243        0.8779343220
  16
  -17.8909188300000       2.879596030076263E-002 !gc
 C          1.4756628927        0.1268416752        1.1664493275
 C          0.7220012060       -0.1523968634       -0.1008598082
 C          1.3239211779       -0.6664325583       -1.1682954370
 C         -0.7220102127        0.1523756337       -0.1008509262
 C         -1.3239324892        0.6664140996       -1.1682751802
 C         -1.4756550736       -0.1268372243        1.1664798630
 H          1.2964992351        1.1489593809        1.4956559724
 H          2.5423151634       -0.0110325665        1.0115118641
 H          1.1518198851       -0.5455798162        1.9587908175
 H          0.7839140847       -0.9001911534       -2.0694991778
 H          2.3786543258       -0.8845368168       -1.1730576639
 H         -2.3785933988        0.8848198001       -1.1729652866
 H         -0.7838684027        0.9003179731       -2.0693984172
 H         -1.2964837602       -1.1489448645        1.4956963174
 H         -1.1517927537        0.5455730218        1.9588209664
 H         -2.5423154317        0.0110349619        1.0115969104
  16
  -17.8909188200000       2.879565558498320E-002 !md5
 C          1.4756374968        0.1270270367       -1.1663993741
 C          0.7220046864       -0.1523814714        0.1008879415
 C          1.3238637392       -0.6666692345        1.1681944077
 C         -0.7220045788        0.1523815626        0.1008927923
 C         -1.3238873829        0.6666205631        1.1682124239
 C         -1.4756172116       -0.1269926300       -1.1664114053
 H          1.2953814322        1.1487287190       -1.4962468208
 H          1.1526821659       -0.5461868691       -1.9584112429
 H          2.5424114877       -0.0095977980       -1.0112513224
 H          0.7837928274       -0.9005240686        2.0693202331
 H          2.3785274775       -0.8850786444        1.1728809142
 H         -2.3785183418        0.8851992341        1.1728285499
 H         -0.7838478968        0.9003798580        2.0693835886
 H         -1.2951102555       -1.1485790655       -1.4964884532
 H         -2.5424207773        0.0093402810       -1.0111800306
 H         -1.1528593779        0.5464872558       -1.9582811708
  16
  -17.8909188100000       2.879535087242825E-002 !md3
 C          1.4754888101        0.1262695303        1.1666246462
 C          0.7220026579       -0.1523484186       -0.1009335064
 C          1.3241103307       -0.6659657281       -1.1684386343
 C         -0.7220087970        0.1523154224       -0.1009239939
 C         -1.3241168530        0.6659739517       -1.1684185445
 C         -1.4754746093       -0.1262550210        1.1666550374
 H          1.1526800359       -0.5477582566        1.9580119172
 H          1.2948832234        1.1476158819        1.4973628869
 H          2.5423199430       -0.0098974002        1.0114199659
 H          0.7842543362       -0.8994687356       -2.0697822153
 H          2.3787815411       -0.8843522997       -1.1730013389
 H         -2.3787900809        0.8843535850       -1.1729903421
 H         -0.7842613282        0.8994551392       -2.0697687990
 H         -1.1531305825        0.5482500209        1.9578267721
 H         -2.5423620573        0.0093050771        1.0112654033
 H         -1.2943933753       -1.1473807054        1.4977951801
  16
  -17.8909188000000       2.879504616320598E-002 !mtd6
 C          1.4756898986        0.1270893129       -1.1663806038
 C          0.7219924999       -0.1523869875        0.1008633482
 C          1.3238201733       -0.6666953740        1.1681878220
 C         -0.7220142132        0.1524175526        0.1008670046
 C         -1.3238640074        0.6666575436        1.1682062166
 C         -1.4756428855       -0.1270889296       -1.1663923503
 H          2.5424578852       -0.0096212929       -1.0111793068
 H          1.2955020971        1.1488570253       -1.4960926974
 H          1.1527205290       -0.5460260875       -1.9584827345
 H          0.7837201712       -0.9006669247        2.0692676071
 H          2.3785282373       -0.8848734323        1.1729782047
 H         -2.3785171458        0.8850950681        1.1729074096
 H         -0.7837403765        0.9007005743        2.0692613286
 H         -1.1522141549        0.5455608065       -1.9586870714
 H         -1.2958625405       -1.1490353210       -1.4957294243
 H         -2.5423738303        0.0100915951       -1.0113869929
  16
  -17.8909187900000       2.879474145709986E-002 !mtd14
 C          1.4753198852        0.1255949320       -1.1668630793
 C          0.7220017012       -0.1523230847        0.1009628726
 C          1.3243630005       -0.6653796370        1.1686402626
 C         -0.7220077575        0.1522992846        0.1009772743
 C         -1.3243473921        0.6652872020        1.1686555268
 C         -1.4753145281       -0.1254832803       -1.1668773083
 H          1.2954943835        1.1471370621       -1.4974857108
 H          1.1516699338       -0.5480698325       -1.9582298860
 H          2.5420979767       -0.0115244405       -1.0119501618
 H          0.7847265714       -0.8988463399        2.0701042184
 H          2.3790847363       -0.8835413684        1.1731035943
 H         -2.3790555678        0.8835218858        1.1730891749
 H         -0.7847720638        0.8982040940        2.0703229069
 H         -2.5422328818        0.0094906956       -1.0113740515
 H         -1.1533140193        0.5499154520       -1.9574418367
 H         -1.2938767383       -1.1462325881       -1.4989992810
  16
  -17.8909187700000       2.879413205456069E-002 !mtd11
 C          1.4754591460        0.1259805259        1.1666945307
 C          0.7220024024       -0.1522633976       -0.1009669553
 C          1.3241455817       -0.6658182766       -1.1684921950
 C         -0.7220020453        0.1523950152       -0.1009644882
 C         -1.3242993565        0.6658009047       -1.1684700203
 C         -1.4753328689       -0.1260530009        1.1667266827
 H          2.5425657325       -0.0079527666        1.0108311777
 H          1.1542303312       -0.5497366241        1.9572663623
 H          1.2931334912        1.1464847888        1.4988719623
 H          0.7842980747       -0.8993897198       -2.0698052729
 H          2.3788666503       -0.8840041700       -1.1730848133
 H         -2.3789980631        0.8840643431       -1.1728327922
 H         -0.7846653967        0.8992188259       -2.0699567750
 H         -1.2949491469       -1.1474289639        1.4972708353
 H         -1.1519797683        0.5476459603        1.9581291218
 H         -2.5421784739        0.0106005513        1.0118959082
  16
  -17.8909187500000       2.879352266502697E-002 !mtd7
 C          1.4757583521        0.1275833423        1.1662071383
 C          0.7220350264       -0.1524336944       -0.1008624597
 C          1.3236898248       -0.6672012303       -1.1680425307
 C         -0.7219717191        0.1524118413       -0.1008782885
 C         -1.3237780015        0.6670810907       -1.1680155324
 C         -1.4757132544       -0.1274849247        1.1662435786
 H          1.2967017579        1.1500146380        1.4945562191
 H          2.5423903745       -0.0106264069        1.0114161418
 H          1.1517842774       -0.5441538110        1.9591154901
 H          0.7833488496       -0.9015765283       -2.0688576944
 H          2.3783451196       -0.8856025672       -1.1729113891
 H         -2.3784534208        0.8856117099       -1.1724815274
 H         -0.7837428645        0.9013855975       -2.0690349776
 H         -2.5426248714        0.0074920819        1.0106171775
 H         -1.2940035752       -1.1487251818        1.4967197262
 H         -1.1539867040        0.5466997448        1.9579646747
  16
  -17.8909187300000       2.879291328828193E-002 !mtd11
 C          1.4755801984        0.1262897746       -1.1666155343
 C          0.7220155552       -0.1522398758        0.1009180262
 C          1.3240327937       -0.6659917858        1.1684098049
 C         -0.7220117778        0.1524571866        0.1008759028
 C         -1.3241259049        0.6659737634        1.1684409418
 C         -1.4755010900       -0.1263865612       -1.1666165907
 H          1.1543048681       -0.5492145970       -1.9573933196
 H          2.5425891315       -0.0078772297       -1.0107962491
 H          1.2934012938        1.1469604448       -1.4985830544
 H          0.7840423528       -0.8997709540        2.0695901566
 H          2.3787316846       -0.8842561586        1.1731178096
 H         -2.3787988120        0.8843337891        1.1731430489
 H         -0.7841648068        0.8994900104        2.0697228437
 H         -2.5420025681        0.0130098369       -1.0123068957
 H         -1.1503886339        0.5450123660       -1.9592204064
 H         -1.2975926559       -1.1489090074       -1.4951458910
  16
  -17.8909187200000       2.879260860474566E-002 !mtd2
 C          1.4755367371        0.1258045838       -1.1667906368
 C          0.7220614918       -0.1521663071        0.1009226245
 C          1.3240834338       -0.6655511585        1.1686001284
 C         -0.7219684617        0.1523723719        0.1009843112
 C         -1.3243575447        0.6655001161        1.1686026526
 C         -1.4753067011       -0.1258326234       -1.1668157213
 H          2.5423693773       -0.0106970544       -1.0117236546
 H          1.2951579276        1.1470542856       -1.4981408306
 H          1.1524543023       -0.5484526805       -1.9579681281
 H          0.7839365507       -0.8988968052        2.0698734562
 H          2.3786431568       -0.8845714502        1.1732079393
 H         -2.3790970948        0.8836183989        1.1729406767
 H         -0.7849280409        0.8985114949        2.0703072209
 H         -2.5423604948        0.0080157082       -1.0110538217
 H         -1.1540775698        0.5501326956       -1.9572040563
 H         -1.2926815075       -1.1462278289       -1.4991929054
  16
  -17.8909187000000       2.879199924745373E-002 !mtd11
 C          1.4756469106        0.1267563972        1.1664763779
 C          0.7219846742       -0.1524061316       -0.1008445070
 C          1.3239331110       -0.6662975956       -1.1683185996
 C         -0.7219998229        0.1524121884       -0.1008444376
 C         -1.3239458591        0.6663029631       -1.1682959013
 C         -1.4756287351       -0.1267370715        1.1665089772
 H          1.2951378165        1.1482007276        1.4969352399
 H          2.5424513580       -0.0093710213        1.0111193006
 H          1.1529788703       -0.5470711794        1.9581064148
 H          0.7841372950       -0.8988288249       -2.0699633281
 H          2.3785156683       -0.8851194179       -1.1728494477
 H         -2.3786668555        0.8844441616       -1.1730398169
 H         -0.7840629592        0.8993292951       -2.0697632953
 H         -1.1516116477        0.5456651148        1.9587751351
 H         -2.5422920877        0.0112386990        1.0116980789
 H         -1.2964716121       -1.1488539970        1.4957280068
  16
  -17.8909186900000       2.879169457358974E-002 !mtd7
 C          1.4757041127        0.1273585923        1.1662728325
 C          0.7220385264       -0.1522381689       -0.1009462250
 C          1.3237271206       -0.6671202788       -1.1680534772
 C         -0.7219925693        0.1526132133       -0.1008901566
 C         -1.3238163175        0.6671671403       -1.1680459829
 C         -1.4756482445       -0.1275836945        1.1662922583
 H          2.5425030713       -0.0086581527        1.0108702402
 H          1.1533133498       -0.5460106893        1.9584046647
 H          1.2950008305        1.1489930443        1.4960957804
 H          0.7833487716       -0.9021521690       -2.0687080275
 H          2.3783659379       -0.8856275960       -1.1728128537
 H         -2.3785151502        0.8853965267       -1.1727827922
 H         -0.7837473980        0.9008739077       -2.0692198293
 H         -2.5423543054        0.0106532512        1.0117998569
 H         -1.2965266099       -1.1499287214        1.4946186274
 H         -1.1515389879        0.5441153163        1.9591081689
  16
  -17.8909186400000       2.879017125273779E-002 !mtd7
 C          1.4759340681        0.1280047019       -1.1660736566
 C          0.7219647223       -0.1523169609        0.1008298801
 C          1.3234739863       -0.6675412144        1.1678892229
 C         -0.7220177633        0.1525809172        0.1007769661
 C         -1.3235687173        0.6675344693        1.1679233966
 C         -1.4758231103       -0.1281273533       -1.1660722002
 H          1.1548420440       -0.5464606101       -1.9578595267
 H          2.5429122893       -0.0063544989       -1.0099805683
 H          1.2937926129        1.1491328353       -1.4966960646
 H          0.7831022794       -0.9020908398        2.0686312799
 H          2.3781428092       -0.8859986699        1.1727163049
 H         -2.3782048599        0.8860506362        1.1727513159
 H         -0.7832140115        0.9018750080        2.0687742902
 H         -1.2977428770       -1.1512170692       -1.4930436525
 H         -2.5422768877        0.0113841280       -1.0116922644
 H         -1.1509146887        0.5420755489       -1.9598173228
  16
  -17.8909186400000       2.879017125273779E-002 !mtd10
 C          1.4760363971        0.1290112426       -1.1657845962
 C          0.7220121539       -0.1525273466        0.1007762321
 C          1.3232572736       -0.6684330216        1.1676196878
 C         -0.7220019274        0.1524179083        0.1008198005
 C         -1.3232654606        0.6683392431        1.1676269197
 C         -1.4760217784       -0.1288622200       -1.1658056263
 H          1.2964445360        1.1515335504       -1.4934921506
 H          1.1527114399       -0.5422851143       -1.9592499156
 H          2.5427000514       -0.0086346318       -1.0107687691
 H          0.7826230275       -0.9031318111        2.0682027018
 H          2.3777975526       -0.8874369062        1.1724522947
 H         -2.3778718509        0.8870703729        1.1723603512
 H         -0.7827406378        0.9034679758        2.0681534233
 H         -1.1539909237        0.5437746657       -1.9586509556
 H         -1.2950448401       -1.1507416876       -1.4946461107
 H         -2.5428268687        0.0070294120       -1.0103245443
  16
  -17.8909186400000       2.879017125273779E-002 !mtd7
 C          1.4754629786        0.1259430866       -1.1667591963
 C          0.7220258085       -0.1523408513        0.1008910902
 C          1.3242259643       -0.6655485360        1.1685623326
 C         -0.7219734030        0.1524069541        0.1008774774
 C         -1.3242315437        0.6654751164        1.1685853294
 C         -1.4754600736       -0.1257959746       -1.1667668673
 H          1.1503697651       -0.5458102567       -1.9591380254
 H          2.5419966443       -0.0133799973       -1.0123890504
 H          1.2975733469        1.1483697303       -1.4956942613
 H          0.7842865777       -0.8994020831        2.0697754343
 H          2.3789174019       -0.8838348823        1.1732159740
 H         -2.3791173533        0.8827481374        1.1735566645
 H         -0.7846155739        0.8979982181        2.0703327993
 H         -1.1516962995        0.5474495075       -1.9584272994
 H         -1.2961613467       -1.1475560262       -1.4970059079
 H         -2.5421458019        0.0117517327       -1.0118315300
  16
  -17.8909186300000       2.878986659832568E-002 !md8
 C          1.4758207635        0.1278505388        1.1661146220
 C          0.7220573948       -0.1522788649       -0.1009231055
 C          1.3234955196       -0.6675246337       -1.1679186309
 C         -0.7219617914        0.1524410364       -0.1008449858
 C         -1.3236558337        0.6673662212       -1.1679174569
 C         -1.4757170384       -0.1278692759        1.1661291346
 H          1.1516435158       -0.5434160315        1.9591934049
 H          1.2970238846        1.1504134884        1.4941539117
 H          2.5424095500       -0.0107109808        1.0114523772
 H          0.7829436616       -0.9020629959       -2.0685720193
 H          2.3779799929       -0.8866611427       -1.1727117643
 H         -2.3781947346        0.8863768757       -1.1723772441
 H         -0.7834393384        0.9019620329       -2.0687385307
 H         -1.2928579749       -1.1485796421        1.4973709800
 H         -1.1552267687        0.5472897904        1.9575381794
 H         -2.5427467177        0.0055670973        1.0099414597
  16
  -17.8909186200000       2.878956194702917E-002 !mtd1
 C          1.4759881543        0.1292098372        1.1657510620
 C          0.7220295565       -0.1524786350       -0.1008428725
 C          1.3231986132       -0.6687479343       -1.1675634920
 C         -0.7220156989        0.1524612624       -0.1008273150
 C         -1.3232019063        0.6686652989       -1.1675451432
 C         -1.4759884773       -0.1291399319        1.1657800401
 H          2.5428440238       -0.0066866790        1.0103376855
 H          1.1538906076       -0.5430606147        1.9589391184
 H          1.2950072350        1.1512409216        1.4941867727
 H          0.7824856876       -0.9038578355       -2.0680100179
 H          2.3778617397       -0.8871688003       -1.1726428847
 H         -2.3778556714        0.8870724011       -1.1725564256
 H         -0.7825355576        0.9037472711       -2.0680083369
 H         -1.1543312775        0.5436988949        1.9586894217
 H         -2.5428496251        0.0063337224        1.0102320035
 H         -1.2946392089       -1.1509605522        1.4947403648
  16
  -17.8909186000000       2.878895265410747E-002 !mtd8
 C          1.4760042859        0.1282243933       -1.1660194680
 C          0.7220736872       -0.1521818183        0.1008394588
 C          1.3232480801       -0.6679145048        1.1678330052
 C         -0.7219290726        0.1525951662        0.1008758202
 C         -1.3237069278        0.6676585208        1.1678424991
 C         -1.4756419368       -0.1281968210       -1.1660383718
 H          2.5426499205       -0.0097544621       -1.0109842312
 H          1.2967754623        1.1506332002       -1.4943982540
 H          1.1524446709       -0.5434780169       -1.9591490863
 H          0.7824536926       -0.9026917147        2.0683459208
 H          2.3776084026       -0.8877528792        1.1724385676
 H         -2.3784793393        0.8855256923        1.1725780750
 H         -0.7835037091        0.9028304179        2.0685471280
 H         -1.2928498166       -1.1492675795       -1.4962693394
 H         -2.5426961303        0.0055386137       -1.0101066488
 H         -1.1549765452        0.5462128708       -1.9579254226
  16
  -17.8909186000000       2.878895265410747E-002 !md4
 C          1.4755771335        0.1259908546        1.1666775575
 C          0.7220068386       -0.1524131568       -0.1008405953
 C          1.3242079238       -0.6655425049       -1.1685520959
 C         -0.7220239820        0.1523833731       -0.1008718142
 C         -1.3241938119        0.6656426957       -1.1685206747
 C         -1.4755896464       -0.1260530731        1.1667173744
 H          1.1509599763       -0.5462538443        1.9587905791
 H          1.2972885326        1.1481661458        1.4960938186
 H          2.5421196949       -0.0127791498        1.0120553418
 H          0.7845193877       -0.8988860853       -2.0700527507
 H          2.3789735276       -0.8835068336       -1.1731399884
 H         -2.3790207418        0.8832597477       -1.1733487331
 H         -0.7842716662        0.8996330877       -2.0696923438
 H         -2.5420973434        0.0136918990        1.0123950766
 H         -1.2980041515       -1.1487124981        1.4951020168
 H         -1.1502819741        0.5452899488        1.9594031639
  16
  -17.8894140200000       5.858261753880733E-003 !gc
 C          1.4018052919       -0.2687400237       -1.2247005389
 C          0.7236246777       -0.1409663921        0.1097531062
 C          1.4402963064       -0.2851025023        1.2240203730
 C         -0.7236431854        0.1409455278        0.1097593933
 C         -1.4407370719        0.2828058057        1.2240308004
 C         -1.4013716142        0.2709516960       -1.2247065504
 H          1.2961605438        0.6481327243       -1.8010301112
 H          0.9669158792       -1.0821750451       -1.8020443769
 H          2.4610925729       -0.4705670218       -1.0906387119
 H          1.0191191595       -0.2075246564        2.2098193647
 H          2.4964549962       -0.4906923914        1.1840042008
 H         -2.4969360962        0.4881791427        1.1840503133
 H         -1.0199384808        0.2030347481        2.2098230567
 H         -2.4605272683        0.4734821660       -1.0906773080
 H         -0.9657121651        1.0847361670       -1.8009383976
 H         -1.2963241231       -0.6453439744       -1.8021088037
  16
  -17.8894131000000       5.852561281359888E-003 !gc
 C          1.3542313339       -0.5140628287        1.1997005297
 C          0.7278406161       -0.1194429256       -0.1075423860
 C          1.4882455565       -0.0395704584       -1.1990594298
 C         -0.7194226844        0.1628908981       -0.1074164753
 C         -1.3937797403        0.5245599800       -1.1985068253
 C         -1.4487339898        0.0288975295        1.1991834340
 H          2.4156113897       -0.7046113680        1.0660574654
 H          0.8896505612       -1.4151727391        1.5946546933
 H          1.2370628132        0.2773865909        1.9373912455
 H          1.1059838103        0.2365243233       -2.1648571812
 H          2.5427705799       -0.2535475527       -1.1597537461
 H         -2.4514424519        0.7223795353       -1.1593515029
 H         -0.9353242637        0.6381697037       -2.1639509594
 H         -2.5003072374        0.2704829477        1.0698193836
 H         -1.3737220570       -0.9877240655        1.5799459514
 H         -1.0301594179        0.7004440721        1.9459756802
  16
  -17.8888520400000       3.232218015056662E-003 !mtd11
 C          1.5686001168        0.5782644870       -0.8968606771
 C          0.7220696016       -0.1773304284        0.0824805440
 C          1.2046460855       -1.1045239674        0.8941595219
 C         -0.7219471660        0.1774656986        0.0825314676
 C         -1.2048672137        1.1044632723        0.8941704600
 C         -1.5684553298       -0.5783048494       -0.8968837154
 H          2.6078593865        0.2681666471       -0.8315180783
 H          1.5000547241        1.6462897700       -0.6947562383
 H          1.2117940334        0.4105906134       -1.9118809970
 H          0.5727468792       -1.6301093381        1.5903371304
 H          2.2482381792       -1.3716984525        0.8968032408
 H         -2.2486069586        1.3711859880        0.8965389696
 H         -0.5735107674        1.6302201316        1.5907259560
 H         -2.6074319827       -0.2669882815       -0.8327755236
 H         -1.2104576286       -0.4118933194       -1.9117051739
 H         -1.5012351661       -1.6461714660       -0.6936710482
  16
  -17.8888484700000       3.220030520581599E-003 !gc
 C          1.5767234036        0.6130997256       -0.8619886368
 C          0.7218885037       -0.1786182871        0.0806943138
 C          1.1963350636       -1.1385092492        0.8583468531
 C         -0.7217748285        0.1783372746        0.0808213062
 C         -1.1961070660        1.1384534287        0.8583367391
 C         -1.5769865725       -0.6128799551       -0.8620295437
 H          1.5103336486        1.6723850092       -0.6181366658
 H          1.2234694756        0.4873090745       -1.8844659683
 H          2.6147085582        0.2970076528       -0.8045016050
 H          0.5587834661       -1.6891336594        1.5296043753
 H          2.2395330638       -1.4070661036        0.8590795251
 H         -2.2395446555        1.4060286303        0.8600548369
 H         -0.5583729465        1.6901299370        1.5285864290
 H         -1.2275406373       -0.4823224636       -1.8852607408
 H         -1.5066449583       -1.6728154004       -0.6221879315
 H         -2.6156605341       -0.3001276596       -0.8001255361
  16
  -17.8888455100000       3.209960337743145E-003 !mtd6
 C          1.5747817819        0.6048760028       -0.8704408147
 C          0.7218928764       -0.1781710662        0.0812711966
 C          1.1981355601       -1.1306136845        0.8669652001
 C         -0.7218803128        0.1782472786        0.0812081100
 C         -1.1981760457        1.1305768914        0.8670078368
 C         -1.5747519720       -0.6048860501       -0.8704371795
 H          1.2257767685        0.4619972797       -1.8921404940
 H          2.6142725310        0.2954877117       -0.8052412076
 H          1.5016813641        1.6672246794       -0.6423024696
 H          0.5619635063       -1.6757272824        1.5440086321
 H          2.2415576564       -1.3983766072        0.8685466555
 H         -2.2415571900        1.3985035744        0.8683659472
 H         -0.5620091817        1.6757828716        1.5439829158
 H         -1.5059887682       -1.6667163464       -0.6384702832
 H         -2.6133695984       -0.2917965867       -0.8091088954
 H         -1.2223495856       -0.4667293164       -1.8915980479
  16
  -17.8888455100000       3.209960337743145E-003 !mtd6
 C          1.5745912372        0.6046476748       -0.8707042033
 C          0.7218887905       -0.1782374415        0.0813297639
 C          1.1982921709       -1.1304516241        0.8672108068
 C         -0.7218859618        0.1782018308        0.0813130012
 C         -1.1982182397        1.1303868086        0.8672404939
 C         -1.5746671899       -0.6045712714       -0.8707114618
 H          1.5035330024        1.6667950461       -0.6409894088
 H          1.2238347672        0.4637563114       -1.8920608021
 H          2.6136822836        0.2935648304       -0.8074721683
 H          0.5623204946       -1.6755639582        1.5444355759
 H          2.2417149670       -1.3982612872        0.8684664491
 H         -2.2415935581        1.3983566766        0.8684879733
 H         -0.5621580762        1.6754280905        1.5444433674
 H         -1.5039241008       -1.6667114627       -0.6408548597
 H         -2.6137338257       -0.2932343756       -0.8076374816
 H         -1.2236855727       -0.4638435940       -1.8920158577
