! pbe def2-sv(p) def2/J RI DEFGRID1 loosescf d4 GCP(DFT/SV(P)) printgap
%output
    printlevel normal
end
* xyz 0 1
C 4.3042035567 0.4294636375 -2.03174292
C 4.5646986392 0.6127295709 -0.5508484881
O 3.6152188106 -0.0881054254 0.2727430139
P 2.061054349 0.2556305514 0.2774351069
S 1.6286837324 2.157695082 0.1776838014
O 1.5904269743 -0.3925518835 1.635127668
C 1.9315817437 -1.7489035477 2.0161050174
C 3.0873727114 -1.7499839534 2.9936368647
S 1.2703168865 -0.9911907989 -1.270731386
C 0.1611764171 0.193680815 -2.086815065
S -1.5838904757 -0.2985107672 -2.0947006891
P -2.0742189266 -0.3086689191 -0.0484802185
S -1.4306303587 -1.7185907305 1.1392503108
O -3.6586754182 -0.3363010095 -0.0591373505
C -4.4740845069 0.596625804 -0.8103539485
C -5.0566685947 -0.0793526693 -2.0349640472
O -1.6086139762 1.1781266874 0.3281483469
C -1.4336117055 1.5875755884 1.6952771144
C -2.7542710522 1.6760911132 2.4300706714
H 5.1236521862 0.8665731343 -2.5932587084
H 4.2218510228 -0.6266328772 -2.276133488
H 3.3792561763 0.9317512608 -2.3115473894
H 4.5304708824 1.6732639422 -0.2838318888
H 5.5249665795 0.1868123744 -0.2565771459
H 1.0187634548 -2.1474528739 2.4644779155
H 2.1660369104 -2.3224101167 1.1153089635
H 2.8433572743 -1.1362451395 3.8563454299
H 3.271088436 -2.769104167 3.3186652561
H 3.9825680137 -1.3551404395 2.5206027646
H 0.4363140805 0.2394198591 -3.1379945262
H 0.2692660769 1.1689082605 -1.6041475308
H -5.2600877978 0.897900844 -0.1153814999
H -3.868502931 1.4646553684 -1.0832097228
H -4.2645670395 -0.3746326173 -2.7197419628
H -5.61206836 -0.9650341416 -1.7393746658
H -5.7242566762 0.6127697316 -2.538253889
H -0.7605084935 0.8766691079 2.1873149354
H -0.9391531958 2.5578297583 1.6181757221
H -2.5773502786 2.0387211797 3.4377418583
H -3.4276348199 2.3566647348 1.9152519153
H -3.2131177481 0.6889391078 2.4841685027
*
