! r2scan-3c def2/J RI DEFGRID2 scfconv6 printgap
%output
    printlevel normal
end
* xyz 0 1
C 3.0829239803 -4.7022038246 -0.8951370653
C 3.5269175883 -3.5347374777 -1.7621120091
O 3.4569069757 -2.2959153994 -1.0287938981
C 2.3161273378 -1.6346854342 -1.0199244663
O 1.3162992589 -1.9753601537 -1.6127055462
C 2.4214728714 -0.3799231478 -0.1763927317
C 1.0762984482 0.3191233823 -0.085027138
H 0.6135318099 0.3464908857 -1.0837000785
C 1.1793092406 1.7606653981 0.3756407458
O 2.1342235475 2.4621306977 0.1366712302
O 0.0992505714 2.1395286725 1.026710296
C -0.0128718106 3.5138147393 1.4503149878
C -0.8040672325 4.3194063292 0.4347772768
S -0.0716829512 -0.6204379546 0.973955827
P -1.8787500934 0.214856568 0.2275310711
S -1.8089715163 1.1228301036 -1.505140239
O -2.865520403 -1.0499690721 0.2644907899
C -2.7021433818 -2.1282298385 -0.6607131514
O -2.5206762838 1.10828818 1.3586252569
C -2.720893104 0.6203088888 2.7000114413
H 3.6822787688 -4.7448244234 0.0099429205
H 2.0364314907 -4.5879174939 -0.622246926
H 3.2039460937 -5.6268795369 -1.4496040296
H 2.8970773193 -3.4500352454 -2.6522582036
H 4.5756703755 -3.6247938516 -2.0451948339
H 3.1454859167 0.2985256983 -0.6344130523
H 2.7947468905 -0.651762095 0.8118528577
H -0.5304085364 3.467187774 2.4088472054
H 0.9964684837 3.9153903174 1.5743303815
H -0.942422483 5.3297027358 0.8045368484
H -0.2740999041 4.3553065318 -0.5146350545
H -1.7751689048 3.8582395442 0.2691533792
H -2.7721580476 -1.7577641556 -1.6844921808
H -3.51091187 -2.8223096628 -0.448482841
H -1.73350848 -2.6081735279 -0.5155384153
H -3.0798785922 1.4775627136 3.2634582703
H -1.7777753568 0.2544478827 3.1062189498
H -3.4605171175 -0.1778521269 2.6973591491
*
