! r2scan-3c def2/J RI DEFGRID2 scfconv6 printgap
%output
    printlevel normal
end
* xyz 0 1
C 3.4797977069 -1.4965719346 -2.7566072011
C 3.9674477793 -0.2489689112 -2.04903172
O 3.6308730224 -0.256747997 -0.6510248632
P 2.1321055591 -0.1550897499 -0.1342055464
S 1.0256395612 1.096230439 -1.1714075951
O 2.3172186283 0.1764553647 1.4028733722
C 2.428794229 1.5216629909 1.9041283527
C 3.7139431285 2.1861966705 1.4598578758
S 1.5703322556 -2.1750107325 0.0313423838
C -0.0892742484 -2.0141983331 0.742990086
S -1.3621992117 -1.5085737412 -0.4557264451
P -2.0140433823 0.3297181692 0.4149836379
S -1.0560165864 0.9109585957 2.0177853223
O -3.5682971894 0.0576579275 0.6572406515
C -4.022777156 -0.87235499 1.6586136762
C -5.5250533313 -0.7207264612 1.7850789721
O -2.0823819826 1.4140614959 -0.712340988
C -2.7228586987 1.1806539647 -1.996215406
C -2.1512176511 2.1776853244 -2.9808050285
H 2.3903842462 -1.5096911182 -2.7758353477
H 3.8502575586 -1.5006614294 -3.7766526067
H 3.829981821 -2.3859861748 -2.2388117663
H 3.5310191386 0.6460912349 -2.5044056336
H 5.055839795 -0.1783824623 -2.0555709038
H 1.5553914877 2.0918316793 1.5701038103
H 2.3814452398 1.3989404684 2.9870979798
H 4.5652906422 1.5600241982 1.7134747914
H 3.6979462688 2.3420734036 0.381816556
H 3.8085077728 3.1478624186 1.9543815757
H -0.0711228821 -1.2894574749 1.5619383939
H -0.3489922345 -3.0087660916 1.0955467615
H -3.7492762275 -1.8819508903 1.3376087115
H -3.5142426105 -0.6440501553 2.6012186394
H -5.7728870788 0.2945291187 2.0816130907
H -6.0010152026 -0.935939012 0.8329748451
H -5.8906729222 -1.413417142 2.5357886909
H -2.5165589056 0.1518614485 -2.3057431298
H -3.7973546783 1.3123123206 -1.8562950992
H -2.3620245909 3.1909645838 -2.6517166601
H -1.0727425608 2.0523309914 -3.0452434034
H -2.5948677119 2.0113683861 -3.9568186658
*
