! pbe def2-sv(p) def2/J RI DEFGRID1 loosescf d4 GCP(DFT/SV(P)) printgap
%output
    printlevel normal
end
* xyz 0 1
C 3.0106609177 2.5188835508 -0.5246350224
C 3.5459326992 1.5015646674 0.4619626019
O 2.4445630566 0.8361935461 1.1387124454
P 2.1227920219 -0.6945316285 0.9489851016
S 0.625688753 -1.2800219829 2.0585692393
O 3.5293305511 -1.361760717 1.2790491196
C 3.6776984722 -2.7525348326 1.6186588998
C 3.3044033118 -3.6728811834 0.4748746306
S 1.9111944181 -0.9980297774 -1.1560101162
C 0.1454727596 -0.6866742829 -1.2263067148
S -0.2246196933 1.0872716377 -0.9344427551
P -2.2612187635 0.7886143004 -0.5552818107
S -3.214557544 -0.4693428974 -1.724840696
O -2.9063097998 2.2413865068 -0.4950540431
C -3.4641475596 2.880610317 -1.6583532773
C -2.3919533724 3.2758689576 -2.6527931582
O -2.1799915818 0.4145373843 0.9807563832
C -3.2903816459 -0.1699900895 1.6984688911
C -3.1564598971 -1.6788087258 1.7505952483
H 2.3365809109 3.206456227 -0.021750596
H 3.8425768818 3.0728835098 -0.9473255616
H 2.4633270332 2.0268506479 -1.325462983
H 4.1170685692 1.9807411338 1.2585458859
H 4.1654092903 0.7515186896 -0.0342937214
H 4.7331693628 -2.8414578211 1.8797859746
H 3.0583184339 -2.9595037552 2.496782819
H 3.8350382002 -3.389019964 -0.4303517274
H 3.5619044555 -4.6932555871 0.7401663412
H 2.2333065806 -3.6189976419 0.2863702276
H -0.3518270837 -1.2717584024 -0.4495005943
H -0.2000563356 -0.969531739 -2.2183118795
H -4.1828229362 2.1941700352 -2.1177112852
H -3.98452386 3.7501564171 -1.2548965071
H -1.6257489186 3.8727775838 -2.1645530707
H -1.9273335373 2.3841626902 -3.0719593915
H -2.8413704475 3.8503034237 -3.4563941762
H -3.2296555536 0.2683256468 2.6956592112
H -4.22645567 0.1282807092 1.21800792
H -3.9365922978 -2.0869708394 2.3846095485
H -3.2515103792 -2.1017225999 0.7524330071
H -2.1835048885 -1.9479160083 2.1563763018
*
