! r2scan-3c def2/J RI DEFGRID2 scfconv6 printgap
%output
    printlevel normal
end
%cpcm
    smd true
    smdsolvent "water"
end
* xyz 0 1
C 4.0940707956 -1.6500676687 -2.2892459967
C 4.3379632461 -1.684919002 -0.794495195
O 3.1129250406 -1.5991528078 -0.0458394561
P 2.2195669977 -0.2833051088 -0.0143703597
S 3.2407488918 1.3924304765 0.0624172467
O 1.2748389657 -0.5908011634 1.2189251382
C 1.6348661382 -0.2528107174 2.5792841187
C 0.3799121543 0.1740100168 3.3123164327
S 0.8379719137 -0.5258123985 -1.5895998773
C 0.2836621078 1.2017942604 -1.6424173481
S -0.5585735106 1.7253625736 -0.1349001879
P -2.2882189413 0.4761340757 -0.341331324
S -2.7901839576 -0.0081497974 -2.1652689715
O -3.4084856401 1.3140175176 0.3773917176
C -3.2755785716 2.0127612524 1.6391949087
C -3.5013771175 1.0879172746 2.8166381961
O -2.0498907732 -0.7529300488 0.644887644
C -1.6462901447 -2.0702964479 0.2377475175
C -2.6105542981 -3.0791938499 0.8299665791
H 3.7130974709 -0.6721870792 -2.5815869328
H 5.0278220454 -1.8335240713 -2.8110015706
H 3.3664540475 -2.4067754843 -2.572023259
H 4.9859589565 -0.8566510961 -0.4906358714
H 4.7726481993 -2.6338514201 -0.4779201496
H 2.0819670598 -1.1428133537 3.027474388
H 2.3756283289 0.5536666879 2.5566280921
H -0.3586968627 -0.6220014775 3.2760023917
H 0.6266177353 0.3898635153 4.3466214011
H -0.0359386416 1.0652847269 2.8488027905
H -0.3961249359 1.2781969933 -2.490584153
H 1.1452394322 1.8589048957 -1.7564389601
H -2.2860783321 2.4767366023 1.6784231674
H -4.0411740688 2.7887437382 1.5865298138
H -4.4769465828 0.6161879584 2.737120648
H -2.7380533963 0.3156618021 2.8413862115
H -3.4556005857 1.6658057784 3.7343706314
H -1.6464393295 -2.124959886 -0.8562047334
H -0.6280168037 -2.221647553 0.6052857278
H -3.6103968481 -2.9101674313 0.4381118373
H -2.2866939889 -4.0793026361 0.5608895032
H -2.6351387204 -2.9873035371 1.9119984054
*
