! pbe def2-sv(p) def2/J RI DEFGRID1 loosescf d4 GCP(DFT/SV(P)) printgap
%output
    printlevel normal
end
* xyz 0 1
C 4.765620324 -0.8882245941 -1.3607358803
C 4.5008867678 -0.8394264002 0.1298909464
O 3.5367240252 0.1613817559 0.500899789
P 2.0829237504 0.3416659019 -0.1192387466
S 1.9698342479 1.1476076318 -1.9070461241
O 1.4065277133 1.1776995083 1.0483561407
C 1.3533497683 2.6174926406 1.0153132344
C 2.7285435084 3.2279299825 1.1741155066
S 1.2427380831 -1.5830605339 0.1277579973
C 0.2005319334 -1.6795310274 -1.3680654947
S -1.4993665607 -2.1823673067 -1.0072028012
P -2.0884404364 -0.5172017223 0.1389630236
S -1.4440118565 1.2330522638 -0.4877952656
O -1.6356158916 -0.9603315894 1.5864190466
C -1.4287487966 -0.0343104393 2.6715370506
C -2.7056612012 0.6893158189 3.040973636
O -3.6621100348 -0.7017656245 0.2368191157
C -4.5468884881 -0.4804017137 -0.8800345749
C -5.0859644513 0.9372003183 -0.8735538082
H 3.8685124874 -1.2005139332 -1.8933562037
H 5.0567015648 0.0928854607 -1.7283353867
H 5.5619071592 -1.5978831552 -1.5608816844
H 5.3954711695 -0.5479773927 0.6833585679
H 4.141457872 -1.8071945625 0.4908890942
H 0.8894008469 2.9261869306 0.0722164186
H 0.6925942792 2.8788399152 1.8432993671
H 3.350169758 2.9552156398 0.3219545231
H 2.6397415057 4.3088067168 1.2174653199
H 3.1981618539 2.8615117827 2.0830867135
H 0.6029500612 -2.4519079179 -2.0185629305
H 0.2117320961 -0.7035054592 -1.8626646268
H -1.0659505612 -0.6669390111 3.4829002418
H -0.6460841858 0.6721193695 2.3781856309
H -3.4911152132 -0.0286713985 3.2620321213
H -2.5298809589 1.3159704207 3.9097580926
H -3.0258883789 1.3155701793 2.2084392135
H -4.0149489785 -0.6947625427 -1.8113156777
H -5.3462183434 -1.2108223649 -0.742591092
H -4.2739672605 1.6499253315 -1.0014035054
H -5.7905088882 1.0552912751 -1.6904182847
H -5.588679579 1.1421076735 0.0674900047
*
