! pbe def2-sv(p) def2/J RI DEFGRID1 loosescf d4 GCP(DFT/SV(P)) printgap
%output
    printlevel normal
end
* xyz 0 1
C 4.2678959468 -0.5302588317 -2.1591295744
C 4.4747168405 -0.2561340003 -0.6832294282
O 3.3669151095 -0.700061495 0.1166823813
P 1.9209561151 -0.022537181 0.0484662855
S 2.0169042682 1.9322216977 -0.1367404995
O 1.2944586363 -0.6063178301 1.3795237171
C 1.6263773456 -0.0501815071 2.6684077222
C 0.5570684961 -0.4744259254 3.6534891654
S 0.9062818441 -1.1168279303 -1.4271908951
C -0.079407529 0.2116930097 -2.1835457377
S -1.8788580367 0.0710044038 -1.9515070106
P -2.0260724828 0.0419101438 0.1649026362
S -3.8189553312 0.30822571 0.9018600437
O -0.9055917702 1.0615952375 0.6575960994
C -1.2609264175 2.4140191195 1.0050560837
C -1.5578395195 3.2596962088 -0.2167214369
O -1.3021349744 -1.2888563798 0.6377267137
C -2.0076301058 -2.5358549896 0.7597261032
C -2.3733534677 -3.1223223612 -0.5897490685
H 5.1824565225 -0.3003082267 -2.696264723
H 4.0077551952 -1.5737854392 -2.3171636952
H 3.4652350649 0.0957861701 -2.5460867378
H 4.618705759 0.8150846574 -0.5080123622
H 5.3238099366 -0.8134378247 -0.2851632679
H 2.6112756318 -0.4267567395 2.9579283301
H 1.6742903906 1.0408573252 2.5764101823
H 0.5331872409 -1.5572622552 3.7330819268
H 0.7733057171 -0.0440007361 4.6259753625
H -0.4173495858 -0.1292595146 3.3152739409
H 0.0558903902 0.1519881082 -3.2606186719
H 0.2760879409 1.1682547465 -1.7940396334
H -2.1278244268 2.3815281848 1.6724080555
H -0.3893475216 2.7906392409 1.5430312025
H -2.4020616031 2.8420313575 -0.7646975278
H -1.807888423 4.2662191201 0.1029114626
H -0.6881071135 3.3029007479 -0.8683127116
H -1.3087898473 -3.1769718594 1.2992776861
H -2.9040948679 -2.368402877 1.3660741204
H -1.4904797885 -3.196006807 -1.2209955484
H -2.7958109752 -4.1115888154 -0.445309139
H -3.111384503 -2.4921797087 -1.0851193645
*
