! pbe def2-sv(p) def2/J RI DEFGRID1 loosescf d4 GCP(DFT/SV(P)) printgap
%output
    printlevel normal
end
* xyz 0 1
C 3.2051979765 1.7595023926 -2.288198644
C 3.3314976214 0.2501573442 -2.2571926686
O 2.3013009265 -0.36488291 -1.4569638599
P 2.1374417427 -0.1874824359 0.102511729
S 1.4514581829 1.4859402782 0.8795025654
O 3.6278788085 -0.5063230981 0.5796887259
C 4.0997975463 -0.2184841284 1.9048387482
C 3.4665871974 -1.1234403048 2.9421668044
S 1.0047972982 -1.9243422144 0.4801962496
C -0.2835080563 -1.2496266871 1.5848775838
S -1.959990387 -1.3713522246 0.913396415
P -1.9676272119 0.2928217829 -0.4165846428
S -0.7207514599 0.312701762 -1.9243332793
O -1.7835004037 1.5524784253 0.509626997
C -2.5958637596 1.8541930459 1.6717291816
C -3.7498913039 2.7637935634 1.3046248825
O -3.4997364497 0.3663393816 -0.8383807462
C -4.0278406251 -0.356826986 -1.963524151
C -3.9978104033 -1.8557009418 -1.746310763
H 3.9267641419 2.1706771933 -2.9868509672
H 2.2004024182 2.0398047666 -2.5992271233
H 3.3890693129 2.1756733254 -1.2982613358
H 4.304245159 -0.0582523803 -1.8663873367
H 3.1696857382 -0.1818991443 -3.2462444052
H 5.1776209079 -0.3727528771 1.8384711824
H 3.8850565757 0.8317762767 2.1278848011
H 3.5728964095 -2.1648853194 2.6495765886
H 3.9508174622 -0.9648714577 3.9002576347
H 2.4072731182 -0.8896743031 3.0382855689
H -0.0446788538 -0.201484483 1.7921171735
H -0.2904841357 -1.8488396948 2.4913055737
H -2.9551292731 0.9174456562 2.1068331142
H -1.9023832162 2.3452816386 2.3577983584
H -4.4288430208 2.2562398219 0.6249189243
H -4.2840511176 3.0381130791 2.2089521444
H -3.3758115007 3.6625606807 0.8218014131
H -5.0484441621 0.0168785521 -2.0572415986
H -3.4479724369 -0.084090834 -2.8508848171
H -4.5239062401 -2.3464364187 -2.5588164089
H -2.9674982685 -2.2088086071 -1.7308670509
H -4.4701447688 -2.1113053309 -0.8010892377
*
