! r2scan-3c def2/J RI DEFGRID2 scfconv6 printgap
%output
    printlevel normal
end
* xyz 0 1
C 4.16044e-05 -2.5736893382 -2.47835e-05
C 1.2025604044 -1.8882338772 -2.52055e-05
C 1.1999367723 -0.5026069547 -4.2789e-05
C 1.1147e-06 0.2030710728 2.1943e-06
C -1.1999208703 -0.5026287114 3.04524e-05
C -1.2025043965 -1.8882650547 2.7411e-05
Cl -2.6950945327 0.3653877378 -1.2938e-06
Cl -3.08378e-05 1.9332833672 -8.0305e-06
Cl 2.6950829828 0.365433905 1.63665e-05
H 6.1066e-05 -3.6508885865 7.60392e-05
H 2.1427860716 -2.4135311894 6.27318e-05
H -2.142722141 -2.4135858244 3.427e-06
*
