! pbe def2-sv(p) def2/J RI DEFGRID1 loosescf d4 GCP(DFT/SV(P)) printgap
%output
    printlevel normal
end
* xyz 0 1
C 1.9319410823 2.9211695281 0.6160189318
C 1.4191279764 1.665817403 1.2921007649
O 1.1946754454 0.6319968353 0.3113299842
P 2.2576164289 -0.5614179993 0.1608532793
S 4.1271669085 -0.0660111812 0.449099329
O 1.8969613822 -1.1835793243 -1.2457599062
C 2.5832266314 -0.8005471568 -2.4562554482
C 2.3311942847 0.6472196946 -2.8163964774
S 1.5120228413 -2.0613587682 1.4351694048
C -0.2151989164 -2.1381569006 0.8585207136
S -1.2774163776 -0.831406024 1.5270276385
P -1.8391454577 0.1846473421 -0.2782534201
S -1.1301341361 -0.5328107365 -1.9520172166
O -1.5758980103 1.7188367409 -0.0574141448
C -2.2891985255 2.4766157863 0.9606059275
C -1.8132799693 3.9121717938 0.8933417231
O -3.4332538762 0.1433012547 -0.1927635279
C -4.1561930125 -1.0833025453 -0.4025548191
C -5.6278812229 -0.7412562319 -0.5183894076
H 1.2651110321 3.2035700554 -0.1947430674
H 1.9886701104 3.7244169747 1.3438831462
H 2.9262548017 2.7432013939 0.2116732541
H 0.4527253307 1.8279739491 1.7719628813
H 2.1361078952 1.3056399679 2.0367977705
H 3.6525785869 -0.9858114589 -2.3154370047
H 2.1764127376 -1.4801384847 -3.2061011055
H 1.2615406279 0.8351220815 -2.8734313315
H 2.766592869 1.2970191604 -2.0586004745
H 2.7876581252 0.8646387387 -3.7766711542
H -0.590516342 -3.090310328 1.2232693567
H -0.2354429404 -2.087335141 -0.232870965
H -3.3570420334 2.4036361984 0.7494428043
H -2.0851510251 2.0212607865 1.9338694576
H -1.9762833285 4.3095029157 -0.1044025323
H -2.377224474 4.5017913808 1.6091790729
H -0.7558208094 3.9797127602 1.12886806
H -3.7812546814 -1.5577047261 -1.3155855974
H -3.9668114025 -1.7431055526 0.4493204072
H -5.9701456251 -0.2575263386 0.391751813
H -5.7898284487 -0.0707974588 -1.357612238
H -6.1939152755 -1.6535389364 -0.6747619896
*
