! pbe def2-sv(p) def2/J RI DEFGRID1 loosescf d4 GCP(DFT/SV(P)) printgap
%output
    printlevel normal
end
* xyz 0 1
C 5.2465053464 2.0076504522 -0.6165406161
C 3.755305068 1.7391144116 -0.6641232821
O 3.538781098 0.3503832393 -0.3442224208
P 2.24698481 -0.1696408917 0.4140581208
S 1.5707926867 1.0485387491 1.7989055383
O 2.6593350985 -1.6310578694 0.8593522232
C 3.9553696588 -1.9695820425 1.4070595241
C 4.2410108551 -1.2294902096 2.6963091546
S 0.9036968821 -0.6397730198 -1.1694738559
C -0.2472188937 -1.6776358406 -0.2189348764
S -1.4109181114 -0.737868734 0.7970066105
P -2.5114172793 0.1029418065 -0.8281522329
S -2.6315017312 -0.9940109824 -2.4427485469
O -1.8473226691 1.4979354213 -1.1411821556
C -1.3373722686 2.4654982399 -0.1941318575
C -2.3583960632 2.8772751631 0.8429297036
O -3.9119053677 0.5053073972 -0.1945989204
C -5.0273745223 -0.4020011407 -0.1526010899
C -4.7760682042 -1.5834453728 0.7620757846
H 5.7648333722 1.3509754198 -1.3093077371
H 5.4294043861 3.0398372614 -0.8964347945
H 5.6288639658 1.8373395541 0.3861441571
H 3.3490749992 1.9172339673 -1.6625287515
H 3.2144038767 2.3548872244 0.063012533
H 3.8877675271 -3.0466983192 1.5678448551
H 4.7127010591 -1.751475501 0.6517786494
H 5.1919191964 -1.5621626348 3.1004874434
H 4.2876510087 -0.1571407161 2.5106954315
H 3.454549696 -1.4163645859 3.4238470254
H 0.3124520434 -2.3287978143 0.4466781913
H -0.8056941797 -2.2476201429 -0.9625358384
H -0.4494974817 2.0461951546 0.2891982799
H -1.0446612383 3.3024300889 -0.8297158889
H -2.5993864341 2.0344821585 1.4877558574
H -1.9376601558 3.67275494 1.4503874157
H -3.267412911 3.2274041382 0.3609928843
H -5.8508903224 0.2171385743 0.2057312587
H -5.2328176323 -0.7431146526 -1.172130552
H -5.6898509441 -2.1605605052 0.8603311971
H -4.000526278 -2.2212691409 0.3408186444
H -4.4561620298 -1.2426515097 1.7435967917
*
