! pbe def2-sv(p) def2/J RI DEFGRID1 loosescf d4 GCP(DFT/SV(P)) printgap
%output
    printlevel normal
end
* xyz 0 1
C 1.9246154402 -5.69095e-05 -0.7793190799
N 1.1176683046 -3.14159e-05 0.4241876434
C 0.2979433074 1.193784071 0.5828599848
C -0.9526841586 1.1953283145 -0.3118647858
N -1.7662972627 2.09049e-05 -0.1252560778
C -0.9526720343 -1.1952820652 -0.311899496
C 0.2978569512 -1.193756676 0.5829448503
H 2.5597249433 -0.8846916811 -0.7673842119
H 2.5608644539 0.8838866631 -0.7667934292
H 1.347641964 0.0005472622 -1.7140323318
H -0.0146761413 1.229987365 1.6329788608
H 0.9143046286 2.0703880306 0.3775495186
H -1.5669661182 2.0712481481 -0.0970415559
H -0.660058042 1.2315344985 -1.3654149915
H -2.128788007 -1.17076e-05 0.8253843328
H -1.5669448795 -2.0712734025 -0.0972535042
H -0.6599523661 -1.231371954 -1.3654523209
H -0.0149364429 -1.2298334695 1.6330191232
H 0.9141510264 -2.0704631102 0.3778283688
*
