  33
        -50.86179741
 C         -4.8038359651        1.0392669235       -0.6788014319
 C         -3.6629792797        0.2339313292       -0.1298286749
 C         -3.9310441976       -0.9189103722        0.5990103763
 C         -2.9075540107       -1.6741987084        1.1409201623
 C         -1.5946497479       -1.2856840381        0.9615721834
 C         -1.3055490106       -0.1477505535        0.2140880052
 C         -2.3389104609        0.6214082732       -0.3388080159
 C         -1.9842979519        1.8444853743       -1.1327952723
 N          0.0111869831        0.2967844236        0.0549948349
 C          1.1268978572       -0.4477096226       -0.1295749266
 C          1.0538159921       -1.7942462196       -0.5305745853
 C          2.1875925419       -2.5422073041       -0.7267996616
 C          3.4513891652       -1.9830150959       -0.5379659551
 C          3.5545706565       -0.6608826034       -0.1837245727
 C          2.4151526274        0.1325443674        0.0177686169
 C          2.5869707509        1.5357863507        0.3621430513
 O          1.6816839813        2.3621181337        0.4707196113
 O          3.8533113573        1.9081448894        0.5601613600
 H         -5.7515306448        0.6249890706       -0.3459026425
 H         -4.7407801673        2.0727826695       -0.3444146775
 H         -4.7923256010        1.0316912287       -1.7678921745
 H         -4.9561767091       -1.2221515643        0.7521877056
 H         -3.1325189255       -2.5580480853        1.7183752211
 H         -0.7916505457       -1.8430493941        1.4188465483
 H         -1.7481501164        2.6743677106       -0.4652905296
 H         -1.1081853848        1.6536701970       -1.7498328178
 H         -2.8009898399        2.1490322200       -1.7776894673
 H          0.1715807441        1.2920921729        0.1782127866
 H          0.0822882683       -2.2265931666       -0.7097203665
 H          2.0983072754       -3.5713256240       -1.0399594311
 H          4.3374545802       -2.5787903356       -0.6863402397
 H          4.5229686442       -0.2024118621       -0.0601350846
 H          3.9093929180        2.8566222285        0.7806389280
