  33
        -50.86179741
 C         -4.8038359651        1.0392669235       -0.6788014319
 C         -3.6629792797        0.2339313292       -0.1298286749
 C         -3.9310441976       -0.9189103722        0.5990103763
 C         -2.9075540107       -1.6741987084        1.1409201623
 C         -1.5946497479       -1.2856840381        0.9615721834
 C         -1.3055490106       -0.1477505535        0.2140880052
 C         -2.3389104609        0.6214082732       -0.3388080159
 C         -1.9842979519        1.8444853743       -1.1327952723
 N          0.0111869831        0.2967844236        0.0549948349
 C          1.1268978572       -0.4477096226       -0.1295749266
 C          1.0538159921       -1.7942462196       -0.5305745853
 C          2.1875925419       -2.5422073041       -0.7267996616
 C          3.4513891652       -1.9830150959       -0.5379659551
 C          3.5545706565       -0.6608826034       -0.1837245727
 C          2.4151526274        0.1325443674        0.0177686169
 C          2.5869707509        1.5357863507        0.3621430513
 O          1.6816839813        2.3621181337        0.4707196113
 O          3.8533113573        1.9081448894        0.5601613600
 H         -5.7515306448        0.6249890706       -0.3459026425
 H         -4.7407801673        2.0727826695       -0.3444146775
 H         -4.7923256010        1.0316912287       -1.7678921745
 H         -4.9561767091       -1.2221515643        0.7521877056
 H         -3.1325189255       -2.5580480853        1.7183752211
 H         -0.7916505457       -1.8430493941        1.4188465483
 H         -1.7481501164        2.6743677106       -0.4652905296
 H         -1.1081853848        1.6536701970       -1.7498328178
 H         -2.8009898399        2.1490322200       -1.7776894673
 H          0.1715807441        1.2920921729        0.1782127866
 H          0.0822882683       -2.2265931666       -0.7097203665
 H          2.0983072754       -3.5713256240       -1.0399594311
 H          4.3374545802       -2.5787903356       -0.6863402397
 H          4.5229686442       -0.2024118621       -0.0601350846
 H          3.9093929180        2.8566222285        0.7806389280
  33
        -50.86077443
 C         -4.2734547247       -0.1643916126       -1.7090257312
 C         -3.4407832371       -0.2053237261       -0.4638194801
 C         -4.0200793009       -0.5730509093        0.7426352464
 C         -3.2785258671       -0.5942593105        1.9104949032
 C         -1.9349994523       -0.2811589911        1.8713946192
 C         -1.3303543612        0.0614871138        0.6653355079
 C         -2.0856003519        0.1390322693       -0.5097046343
 C         -1.4785794730        0.6139139620       -1.7953291513
 N          0.0426858327        0.3751894207        0.6834333721
 C          1.0137860136       -0.2448343607       -0.0245844700
 C          0.7278491082       -1.3848440964       -0.7992194672
 C          1.7020018803       -2.0061629551       -1.5382256649
 C          3.0118313604       -1.5252688264       -1.5371974963
 C          3.3271032816       -0.4355321119       -0.7648366166
 C          2.3549521732        0.2198159576        0.0066009564
 C          2.7504667872        1.3485461807        0.8325413603
 O          2.0141681890        1.9627739744        1.6040305762
 O          4.0322788678        1.7044511238        0.7129707689
 H         -5.2653953079       -0.5636293566       -1.5167485724
 H         -4.3788715769        0.8601093044       -2.0640197495
 H         -3.8082994548       -0.7454830648       -2.5026031598
 H         -5.0675760377       -0.8343990421        0.7700040362
 H         -3.7442378001       -0.8645625281        2.8458455524
 H         -1.3361322198       -0.3061925812        2.7694377437
 H         -0.5097737490        1.0739575870       -1.6236272225
 H         -1.3442814206       -0.2114871969       -2.4936980075
 H         -2.1309411708        1.3463183363       -2.2657423714
 H          0.3575213557        1.0585141653        1.3640266266
 H         -0.2768850641       -1.7760024809       -0.7807759557
 H          1.4536947593       -2.8812763474       -2.1193869141
 H          3.7712987084       -2.0148098326       -2.1251279914
 H          4.3387246365       -0.0629035088       -0.7315332462
 H          4.2411042562        2.4603547845        1.2927271167
  33
        -50.85956315
 C         -4.4583021499        0.0084343674        1.6312548423
 C         -3.5189602447       -0.1397100210        0.4744968558
 C         -3.9643085108       -0.6861542398       -0.7209321056
 C         -3.1120531645       -0.8335525995       -1.8008643029
 C         -1.7947571150       -0.4323250608       -1.6914280629
 C         -1.3344310947        0.1166558563       -0.5009039114
 C         -2.1866104956        0.2707093365        0.5930129616
 C         -1.6867695114        0.8577385242        1.8767471185
 N          0.0206764814        0.5343444918       -0.4200403747
 C          1.0419249605       -0.2638186737       -0.0531996730
 C          0.7985625059       -1.5896481122        0.3554066334
 C          1.8235516690       -2.4132388823        0.7430748986
 C          3.1429472719       -1.9568310407        0.7439552006
 C          3.4099416996       -0.6694906728        0.3518180018
 C          2.3839669490        0.1999487452       -0.0506433092
 C          2.7173809853        1.5527064713       -0.4581978137
 O          1.9106340272        2.4100586433       -0.8189252916
 O          4.0215130847        1.8426179494       -0.4212385803
 H         -4.5607584581        1.0568436540        1.9069788195
 H         -5.4404103620       -0.3815440655        1.3796017547
 H         -4.0815367446       -0.5269133856        2.5009826861
 H         -4.9936745090       -1.0014344800       -0.8074446651
 H         -3.4729093458       -1.2607146764       -2.7238755627
 H         -1.1103672770       -0.5417048763       -2.5190973412
 H         -1.7553163125        0.1249348021        2.6794676978
 H         -0.6507993569        1.1708389525        1.7829696670
 H         -2.2887181869        1.7193237982        2.1596094919
 H          0.2596333838        1.4697428635       -0.7306458806
 H         -0.2207113507       -1.9440492245        0.3541623217
 H          1.6073813663       -3.4251882925        1.0505303287
 H          3.9435346288       -2.6107984414        1.0499746186
 H          4.4226165461       -0.2979974094        0.3457353019
 H          4.1826037424        2.7617865764       -0.7043140674
  33
        -50.85881132
 C         -4.8093621171        0.9650412212       -0.7257705485
 C         -3.6604850535        0.1957536309       -0.1451918158
 C         -3.9092355306       -0.9374239297        0.6188611633
 C         -2.8716922247       -1.6563195234        1.1841507437
 C         -1.5671728755       -1.2451000144        0.9966930432
 C         -1.2978240645       -0.1230900504        0.2179533678
 C         -2.3433459572        0.6038937774       -0.3650505425
 C         -2.0361022466        1.8081924372       -1.2059566318
 N          0.0160354826        0.3411736010        0.0628132321
 C          1.1322177854       -0.4032682076       -0.1332315519
 C          1.0270691174       -1.7413442457       -0.5573850927
 C          2.1353426896       -2.5235051619       -0.7635345567
 C          3.4145046753       -2.0079565154       -0.5586822261
 C          3.5474768948       -0.6965645807       -0.1788091905
 C          2.4346833946        0.1340104540        0.0289409539
 C          2.7472166162        1.5092156028        0.4064810529
 O          3.8776687941        1.9030952809        0.6621886339
 O          1.7201626435        2.3718809938        0.4550250862
 H         -4.8063050105        0.8983335352       -1.8131597862
 H         -5.7531148063        0.5665789465       -0.3636868807
 H         -4.7465023808        2.0159719466       -0.4514527909
 H         -4.9287639522       -1.2553467948        0.7798227913
 H         -3.0799077374       -2.5276674616        1.7863746105
 H         -0.7529105268       -1.7741251572        1.4679433108
 H         -2.7712237986        1.9233827664       -1.9965895611
 H         -2.0538037567        2.7118908381       -0.5964753806
 H         -1.0535430402        1.7194002651       -1.6624188376
 H          0.1488488699        1.3347473421        0.1858334952
 H          0.0435055137       -2.1425218852       -0.7441987586
 H          2.0139210335       -3.5433877230       -1.0951361343
 H          4.2852496699       -2.6246256536       -0.7119386324
 H          4.5227146559       -0.2552011130       -0.0340233036
 H          2.0259736305        3.2632286441        0.7097790768
  33
        -50.85856677
 C         -4.3219856667       -0.6923969313        1.6855050472
 C         -3.4597813633       -0.3553301225        0.5043739984
 C         -4.0255029108       -0.3432841738       -0.7647383061
 C         -3.2806347755       -0.0101977929       -1.8808569372
 C         -1.9428277262        0.3015764861       -1.7379761510
 C         -1.3561491539        0.2751701434       -0.4789147734
 C         -2.1063552175       -0.0398878171        0.6588183008
 C         -1.4569584421        0.0242220213        2.0104960731
 N          0.0106813053        0.6267289001       -0.3689473285
 C          1.0208287124       -0.2274576073       -0.1057421020
 C          0.7686235405       -1.5973936108        0.1060009771
 C          1.7827363119       -2.4696062023        0.4092538723
 C          3.1003914026       -2.0214862099        0.5110396590
 C          3.3798946972       -0.6972610722        0.2831384254
 C          2.3661627850        0.2207696523       -0.0315861984
 C          2.7208319669        1.6044807571       -0.2966591310
 O          1.9362383438        2.4932807746       -0.6272397338
 O          4.0211988250        1.8818951762       -0.1664291331
 H         -4.3352275752        0.1294711868        2.3986893050
 H         -5.3417278923       -0.8840653070        1.3633764624
 H         -3.9512674322       -1.5809523935        2.1937574229
 H         -5.0712605420       -0.5880695198       -0.8782325935
 H         -3.7399075215        0.0053724580       -2.8573343058
 H         -1.3399717812        0.5645574712       -2.5941781094
 H         -2.0749570655       -0.4339998322        2.7736084531
 H         -0.4899778879       -0.4732668807        2.0045713465
 H         -1.2887418639        1.0665205147        2.2811240674
 H          0.2811786395        1.5608589474       -0.6576637574
 H         -0.2462331632       -1.9513062722        0.0076084128
 H          1.5584523615       -3.5138298632        0.5658637635
 H          3.8917277089       -2.7118399677        0.7545907728
 H          4.3944285992       -0.3353449495        0.3387572113
 H          4.1991625478        2.8205693483       -0.3619325557
  33
        -50.85782862
 C         -4.1473971033       -1.0451644129        1.6447909363
 C         -3.3961454510       -0.4627006745        0.4865320010
 C         -4.0553246713       -0.2148445692       -0.7095017883
 C         -3.3895448049        0.3439767094       -1.7858828462
 C         -2.0426142213        0.6264729591       -1.6830636558
 C         -1.3586192447        0.3575665180       -0.5008817077
 C         -2.0369083023       -0.1555079852        0.6097929657
 C         -1.3433311842       -0.3493524774        1.9242018603
 N          0.0135388712        0.6739157774       -0.4472176519
 C          1.0190563634       -0.1935526766       -0.1762924884
 C          0.7445770748       -1.5697381113       -0.0589747186
 C          1.7271392564       -2.4796626005        0.2370498582
 C          3.0439440111       -2.0627675286        0.4289965720
 C          3.3444959262       -0.7314412592        0.2931856425
 C          2.3638109391        0.2253174232       -0.0152200647
 C          2.8456705654        1.5967788677       -0.1364951710
 O          4.0036005625        1.9330727488        0.0768299818
 O          1.9472376874        2.5216315113       -0.5099472869
 H         -3.6392025351       -1.9271673392        2.0291930246
 H         -4.2193342856       -0.3219652093        2.4563268227
 H         -5.1538593130       -1.3233962334        1.3447926392
 H         -5.1053794680       -0.4523326489       -0.7951243294
 H         -3.9172657421        0.5482717865       -2.7049134097
 H         -1.5041058216        1.0471237856       -2.5187881308
 H         -0.3838398345        0.1591573541        1.9408122898
 H         -1.9580122039        0.0442922334        2.7306907198
 H         -1.1694991160       -1.4066034537        2.1224276713
 H          0.2731946300        1.5949524411       -0.7688185957
 H         -0.2664690418       -1.9021457719       -0.2331596797
 H          1.4796483988       -3.5275050730        0.3126635394
 H          3.8159823149       -2.7765333743        0.6666634002
 H          4.3562572223       -0.3734616358        0.4159135600
 H          2.3589518211        3.4050571376       -0.5608670983
  33
        -50.85423536
 C         -4.4643523299        1.4749553956       -0.3375049023
 C         -3.2387389991        0.7549868486        0.1430476898
 C         -3.1617660988        0.3476187035        1.4693418805
 C         -2.0514144322       -0.3280014562        1.9422680016
 C         -1.0068335896       -0.6208421872        1.0889003341
 C         -1.0621529246       -0.2121228377       -0.2406824132
 C         -2.1744651401        0.4917539009       -0.7202163388
 C         -2.1873749898        0.9441203931       -2.1510797974
 N         -0.0443504660       -0.5488437533       -1.1395152569
 C          1.2572072658       -0.8436370898       -0.8377991539
 C          1.9247980468       -1.8097208448       -1.6048763118
 C          3.2137151755       -2.1941893420       -1.3129833878
 C          3.8857798875       -1.6376104812       -0.2304523997
 C          3.2668846526       -0.6526529585        0.5073905330
 C          1.9776623513       -0.2140771248        0.1970782104
 C          1.5079237215        0.9730825051        0.9304912564
 O          1.8513171677        1.2468077378        2.0690682653
 O          0.7486755898        1.8003772217        0.2179519533
 H         -4.8850565629        0.9790311528       -1.2096236446
 H         -5.2178716446        1.4987807663        0.4449829194
 H         -4.2255595636        2.5017991471       -0.6112560005
 H         -3.9815572190        0.5596642670        2.1397799673
 H         -2.0040956662       -0.6429187730        2.9741860367
 H         -0.1511409336       -1.1742847664        1.4483947787
 H         -2.5332758656        0.1428484353       -2.8047013265
 H         -2.8475936687        1.7940447899       -2.2849580982
 H         -1.1848379602        1.2352239016       -2.4560606907
 H         -0.3654178991       -0.8909628559       -2.0345557825
 H          1.4007827533       -2.2674736339       -2.4306196092
 H          3.6977147122       -2.9454844609       -1.9177963122
 H          4.8846495023       -1.9571643763        0.0185775230
 H          3.7747599546       -0.1692793617        1.3292086256
 H          0.5477696194        2.6152583805        0.7147576146
  33
        -50.85412410
 C         -4.4442389400        1.5210037327       -0.2169032264
 C         -3.2244189999        0.7688065054        0.2287973443
 C         -3.1176944916        0.3679642557        1.5546615413
 C         -2.0119088133       -0.3334301526        1.9994187516
 C         -1.0009844701       -0.6562007012        1.1176571578
 C         -1.0858464087       -0.2534661232       -0.2117683303
 C         -2.1952513891        0.4702744216       -0.6646962477
 C         -2.2350326751        0.9100839239       -2.0989213810
 N         -0.0993292724       -0.6239552509       -1.1312098231
 C          1.2215286885       -0.8674048650       -0.8807448272
 C          1.8870506424       -1.8270246476       -1.6583513602
 C          3.1996039316       -2.1604758836       -1.4160856206
 C          3.8990439791       -1.5525315943       -0.3791683985
 C          3.2825876247       -0.5710746530        0.3652096292
 C          1.9620443185       -0.1895414161        0.1116368680
 C          1.4480181488        1.0068378798        0.7931845590
 O          0.6484989744        1.7963800985        0.3217933373
 O          2.0049417058        1.2181511885        1.9882032374
 H         -5.1677870234        1.5773014231        0.5917869778
 H         -4.1817779171        2.5365780598       -0.5105836707
 H         -4.9114013812        1.0291798275       -1.0675311910
 H         -3.9102211618        0.6088471948        2.2479243674
 H         -1.9429909171       -0.6418859412        3.0320751410
 H         -0.1438410959       -1.2231798552        1.4523102725
 H         -2.5665041437        0.0952288757       -2.7434835227
 H         -2.9136309925        1.7448983438       -2.2339350627
 H         -1.2409777910        1.2226510264       -2.4125674518
 H         -0.4442153732       -0.9638225963       -2.0179722447
 H          1.3426268111       -2.3178369235       -2.4513192278
 H          3.6828878713       -2.9080824630       -2.0261600560
 H          4.9203193719       -1.8291834648       -0.1730665759
 H          3.8238527680       -0.0544624340        1.1425197075
 H          1.6984801432        2.0564427256        2.3815877444
  33
        -50.85286841
 C         -3.1405206853        2.0313120566       -1.1405283550
 C         -2.6846391482        0.9826263730       -0.1692148348
 C         -3.3770495811        0.8065288250        1.0207956235
 C         -3.0008736087       -0.1731633798        1.9214156867
 C         -1.9008345741       -0.9599565288        1.6536790605
 C         -1.1700275524       -0.7725733336        0.4835446024
 C         -1.5839101996        0.1727362088       -0.4634320045
 C         -0.8898496192        0.3084896634       -1.7867016054
 N         -0.0732617760       -1.6131117949        0.2536372680
 C          1.1777303452       -1.2880552850       -0.1867938399
 C          1.9634780606       -2.3069048679       -0.7505807043
 C          3.1848059755       -2.0374376032       -1.3207236521
 C          3.6712291114       -0.7341054094       -1.3576040274
 C          2.9472775984        0.2713756393       -0.7585502666
 C          1.7212873572        0.0139537081       -0.1350009224
 C          1.1446008193        1.0797271773        0.6930570353
 O          0.5295817051        0.9084582112        1.7317414652
 O          1.4336762877        2.3112238040        0.2595299057
 H         -3.8941156898        2.6668093178       -0.6834708527
 H         -2.3072170737        2.6512949793       -1.4636438505
 H         -3.5770421401        1.5674540758       -2.0247330796
 H         -4.2254514356        1.4382370689        1.2398520424
 H         -3.5560502950       -0.3128979785        2.8366692115
 H         -1.5790567392       -1.7099461636        2.3605010369
 H         -1.6166827867        0.4945757204       -2.5732099382
 H         -0.1837109657        1.1401527327       -1.7759483689
 H         -0.3381289383       -0.5944820873       -2.0333614935
 H         -0.2073112650       -2.5789134712        0.5160634350
 H          1.5794241501       -3.3161627707       -0.7458725892
 H          3.7618279328       -2.8400873863       -1.7537165553
 H          4.6171796184       -0.5174734093       -1.8268625433
 H          3.3334191928        1.2784773184       -0.7297601358
 H          1.1327561555        2.9897569058        0.8919943000
  33
        -50.85285708
 C         -3.1155580347        2.0350973264       -1.1477639531
 C         -2.6671825230        0.9873783294       -0.1720169718
 C         -3.3543663491        0.8270436673        1.0233286067
 C         -2.9838995901       -0.1508952932        1.9281859838
 C         -1.8928313336       -0.9504098358        1.6605750905
 C         -1.1667291382       -0.7781253051        0.4854533183
 C         -1.5773068742        0.1633976656       -0.4668409538
 C         -0.8914683797        0.2806635226       -1.7962092880
 N         -0.0734914645       -1.6235162796        0.2562030152
 C          1.1759899064       -1.2939042608       -0.1858354628
 C          1.9664202011       -2.3062307993       -0.7539807499
 C          3.1834657542       -2.0261850311       -1.3287001159
 C          3.6595622678       -0.7191784323       -1.3660681365
 C          2.9307427754        0.2802088170       -0.7622096345
 C          1.7100068617        0.0117870129       -0.1338404377
 C          1.1296110121        1.0715077620        0.7002505136
 O          0.5403519311        0.8938653891        1.7524738604
 O          1.3867268399        2.3052871830        0.2545948234
 H         -3.5673173696        1.5709415988       -2.0241180209
 H         -3.8547830571        2.6862214870       -0.6892612113
 H         -2.2753771425        2.6388510657       -1.4835947410
 H         -4.1940822302        1.4699601156        1.2432757089
 H         -3.5355367279       -0.2786238106        2.8473284906
 H         -1.5740969412       -1.6978840185        2.3714019620
 H         -0.1805528217        1.1082447012       -1.7997673674
 H         -0.3469842492       -0.6282696196       -2.0368344181
 H         -1.6231563119        0.4621867502       -2.5793829089
 H         -0.2058793477       -2.5880807267        0.5233766601
 H          1.5898197081       -3.3182665451       -0.7494852943
 H          3.7648684763       -2.8235945154       -1.7654970831
 H          4.6015559712       -0.4945576587       -1.8395049294
 H          3.3091794595        1.2902829797       -0.7335373347
 H          1.0882936837        2.9817610872        0.8905039630
  33
        -50.85249326
 C         -3.1410432766        2.0038205532       -1.0283685575
 C         -2.6719687304        0.9337247749       -0.0893080973
 C         -3.3392427791        0.7337557413        1.1115919779
 C         -2.9352713988       -0.2553646327        1.9903664284
 C         -1.8238455717       -1.0169431739        1.6953902806
 C         -1.1212186921       -0.8088612829        0.5102764864
 C         -1.5739080360        0.1340532078       -0.4218391207
 C         -0.9357415009        0.2741372798       -1.7718892284
 N         -0.0057667433       -1.6180472219        0.2629768605
 C          1.2187159595       -1.2511091991       -0.2191006526
 C          2.0364509525       -2.2430666498       -0.7837350654
 C          3.2288716962       -1.9285951343       -1.3927492712
 C          3.6497124810       -0.6054738721       -1.4763934246
 C          2.8894374460        0.3775192751       -0.8828278700
 C          1.7020273550        0.0723108204       -0.2132912977
 C          1.1063540576        1.1745713135        0.5611062805
 O          1.0952798738        2.3386399000        0.1975514819
 O          0.6757534107        0.8196923235        1.7696708296
 H         -3.5555053393        1.5682397461       -1.9369232162
 H         -3.9108272862        2.6103431563       -0.5589385273
 H         -2.3111284941        2.6487213847       -1.3131935956
 H         -4.1905870616        1.3525387192        1.3539626222
 H         -3.4755581814       -0.4186906482        2.9103280718
 H         -1.4769187580       -1.7699963128        2.3863172382
 H         -0.3597384931       -0.6102409845       -2.0294101543
 H         -1.7000591188        0.4209115375       -2.5313236070
 H         -0.2660914391        1.1350865873       -1.8018888393
 H         -0.1035326131       -2.5883943033        0.5231318258
 H          1.7022185339       -3.2691697530       -0.7492403532
 H          3.8321625416       -2.7126932710       -1.8237852395
 H          4.5687541040       -0.3530297710       -1.9798070308
 H          3.2106082573        1.4090163131       -0.8904651495
 H          0.3887789334        1.5941191065        2.2878054726
