! wb97x-v def2-tzvp def2/J RIJCOSX DEFGRID2 scfconv7 GCP(DFT/TZ) printgap
%output
    printlevel normal
end
%cpcm
    smd true
    smdsolvent "water"
end
* xyz 0 1
C -2.5691632732382077 0.601050277280938 -0.0024735445351519083
C -1.2244530275929382 -0.06833888823287688 9.464419705615767e-05
C -1.1388425847129597 -1.4621650909403021 0.00010617095987461779
C 0.10091862389458506 -2.0959341015892883 0.002026553592670571
C 1.2654618529920285 -1.3428056370055612 0.0010918015960752739
C 1.183590771855048 0.05020803584708517 -0.0006610029241604384
C -0.051719217606065265 0.7148988301671116 0.0025542836197497017
C -0.16398660218732083 2.213876261860832 0.004133575318205188
O 2.3949576612443355 0.7161069951041218 -0.005314562183447003
H -2.703162104191096 1.2338574639675923 0.8825905712472621
H -2.689965115505205 1.253074856575731 -0.8753196955034445
H -3.370702412949034 -0.14080153106593532 -0.01616764343271065
H -2.051631010652311 -2.0503074294489956 -0.0014613120962493813
H 0.16083728248596033 -3.1799309979390413 0.002849278840829657
H 2.242968446984462 -1.8140586481688783 0.0002818686698057649
H 0.7963008717136835 2.7321792987305034 0.05478644785061498
H -0.672788951343115 2.569359656181763 -0.8989366953690824
H -0.7539823911207586 2.5588305666386213 0.8601499461040097
H 2.244257170024009 1.6701515371024558 -0.019630197708153472
*
