! pbe def2-sv(p) def2/J RI DEFGRID1 loosescf d4 GCP(DFT/SV(P)) printgap
%output
    printlevel normal
end
* xyz 0 1
C 2.5249603689 -2.0262320237 -2.0702966154
C 2.1336710841 -0.5658360143 -2.1264335312
O 2.6335543548 0.2059360419 -1.0101769962
P 2.5658977871 -0.1447414096 0.5256745349
S 2.9384021372 1.4417533209 1.6105535434
O 3.6205796359 -1.3233262781 0.6694540762
C 4.2190281914 -1.6771781033 1.9284733094
C 3.2148567689 -2.265185978 2.8987413873
S 0.6763551264 -1.0672873962 0.8750414018
C -0.2484509922 0.4610002213 1.129426386
S -0.6091734249 1.3284966028 -0.4335635186
P -2.5909176288 0.5749201491 -0.6916070617
S -3.4620984853 1.0860343173 -2.3680106725
O -3.3508124675 0.9332725614 0.6534698527
C -4.1490138849 2.1248429926 0.7622390323
C -3.2953894395 3.3772727936 0.7953573204
O -2.4601490026 -0.976631714 -0.4043611909
C -1.9622064124 -1.8740263886 -1.4194461026
C -1.8534949332 -3.2503626997 -0.7977167276
H 3.6049273989 -2.1211524204 -1.9955995677
H 2.068839194 -2.5103153533 -1.2088685719
H 2.1828080281 -2.5175893888 -2.9761661379
H 1.046522539 -0.4437829598 -2.1549870356
H 2.569830665 -0.0634482014 -2.9913967373
H 4.9871365104 -2.4020549128 1.6554121291
H 4.6859803497 -0.7830712706 2.3533703141
H 3.7391239493 -2.6362725817 3.7735230585
H 2.5071393985 -1.4997867427 3.2127255881
H 2.669045937 -3.0809813193 2.4320284451
H 0.3556676316 1.1388520288 1.7347271824
H -1.1826779345 0.2031861972 1.6225932235
H -4.8440708277 2.1576300161 -0.0827457201
H -4.7018856636 1.9877976713 1.6925943995
H -3.9316055664 4.2419404003 0.9547775336
H -2.5616019295 3.3201909716 1.5957641632
H -2.7728644027 3.4956211251 -0.1539882553
H -2.6586460858 -1.8580361633 -2.2631489079
H -0.986192877 -1.517765204 -1.7637876983
H -1.1532633792 -3.2241142623 0.0330308813
H -2.8250890478 -3.5677798777 -0.4316401295
H -1.5029921935 -3.9526454409 -1.5464186172
*
