! pbe def2-sv(p) def2/J RI DEFGRID1 loosescf d4 GCP(DFT/SV(P)) printgap
%output
    printlevel normal
end
* xyz 0 1
C 0.8440501287 1.416332324 -0.5987796606
C 1.592807409 0.1893706076 -0.0566309623
H 2.5661022322 0.10838572 -0.551603785
C 0.7852004771 -1.1012777411 -0.3304654262
H 1.2331795031 -1.9059308603 0.2658210754
C -0.683072825 -0.9159671097 0.1166055458
H -1.284070252 -1.7469372343 -0.2770142821
C -1.2692125151 0.396908001 -0.4477666914
H -1.3283463596 0.3347329478 -1.5475091545
O -0.467807467 1.4985075768 -0.0759047124
O -2.5534336651 0.6165005124 -0.0034280795
O -0.7909183774 -0.8261015288 1.5194141539
O 0.881854135 -1.542547255 -1.6604000291
O 1.8667124998 0.3249372976 1.3149030364
H 0.8106257556 1.3921336445 -1.6964260898
H 1.3432326095 2.3283162644 -0.2701683514
H -2.5454834173 0.6335850661 0.9688154076
H -0.6562156415 -1.6962512266 1.9189137272
H 0.5894897992 -0.8547733273 -2.2733529456
H 1.0232550387 0.4493673618 1.7820408074
*
