! r2scan-3c def2/J RI DEFGRID2 scfconv6 printgap
%output
    printlevel normal
end
* xyz 0 1
C 5.3183119397 -2.1397374067 -1.0868319349
C 4.0166212554 -2.9250409076 -1.0921492569
O 2.9929538783 -2.2146587378 -1.8178431839
C 2.2638912106 -1.3309548041 -1.1735399945
O 2.3556100752 -1.0887919388 0.0127155404
C 1.2833673846 -0.6322691446 -2.091560538
C 0.2884353007 0.1678542691 -1.2610555985
H -0.2951647111 0.8389098533 -1.9000920138
C 1.0383585075 1.0331190667 -0.2622748144
O 1.9756563 1.7223860616 -0.6006548824
O 0.5313399666 1.0078262412 0.9521037671
C 1.1977483152 1.814423792 1.9458951111
C 0.7481200103 1.377658397 3.3245342347
S -0.8831973246 -0.9560386194 -0.4357369592
P -2.2000328055 0.5085920658 0.3642145898
S -2.1067237398 2.3065066487 -0.4068318437
O -3.6268303854 -0.1995443978 0.1810344532
C -4.2023557827 -0.3804032016 -1.1172668995
O -2.0902994776 0.4873300884 1.938078432
C -2.1934630773 -0.7417627833 2.6854338601
H 5.6379741694 -1.936972716 -2.1051537444
H 5.1825958349 -1.1942671463 -0.5655372882
H 6.0841542621 -2.7158286339 -0.5782431108
H 3.6634715526 -3.0990682263 -0.0719531891
H 4.1227034991 -3.8689607323 -1.6265121472
H 0.7804172962 -1.3638664184 -2.7227107021
H 1.8539147911 0.0502019524 -2.7256605609
H 2.2748125195 1.6810394708 1.8045448756
H 0.9434985043 2.8605025892 1.7466143355
H 0.9650394268 0.3230620806 3.4680415891
H 1.2827142812 1.9594280879 4.0680843095
H -0.3188273144 1.5450554845 3.4361293156
H -5.2273815454 -0.6962222177 -0.9412800133
H -3.6509762385 -1.1462036058 -1.6625627919
H -4.1832967484 0.560173518 -1.6700312331
H -3.162968636 -1.2034342914 2.5100677213
H -2.0855436801 -0.4539126966 3.7278193908
H -1.3948834492 -1.4215701027 2.3887713122
*
