! pbe def2-sv(p) def2/J RI DEFGRID1 loosescf d4 GCP(DFT/SV(P)) printgap
%output
    printlevel normal
end
* xyz 0 1
C 2.2237510206 2.7296798122 -0.0929587985
C 3.0822810102 2.07954824 0.9712157383
O 3.3027278088 0.6843531402 0.6974391541
P 2.1181840285 -0.3721842706 0.7158711841
S 0.7748644508 -0.1037564046 2.1253752146
O 2.8954703462 -1.7558093072 0.7294400681
C 4.0236593216 -2.0618209888 1.5787599898
C 3.6948879751 -1.9326704567 3.051288567
S 1.3905864888 -0.4536374963 -1.2673215732
C 0.1166231264 -1.7216755676 -0.9653905169
S -1.3921822331 -1.4607149708 -1.9378804108
P -2.3407023692 0.0377851442 -0.7891560381
S -4.1474145986 0.540205195 -1.3480792025
O -1.3113917066 1.2556250039 -0.6946819646
C -1.3831994538 2.3536200012 -1.6210255998
C -0.8941563494 1.9614643472 -3.0006894566
O -2.2087286334 -0.6338585518 0.6412068956
C -3.072191438 -0.2638576995 1.7354845501
C -2.8132997426 1.14976648 2.2093757513
H 2.6524049122 2.5652417483 -1.0784378387
H 1.2250113259 2.2947739933 -0.0672305322
H 2.1528585286 3.7954929784 0.0992876413
H 2.6084482987 2.1689911499 1.9542024682
H 4.0868179307 2.5035898249 1.0007510637
H 4.2683137986 -3.0912830248 1.3119870949
H 4.8465602621 -1.3995249145 1.3022368093
H 4.5504612542 -2.2473667401 3.6405576017
H 3.4569137764 -0.897990831 3.2951130565
H 2.8367686988 -2.5510254444 3.3050389473
H -0.1356496006 -1.7194962337 0.0951104395
H 0.5021920044 -2.6870645097 -1.2826826652
H -2.4222183047 2.6967803438 -1.6662891965
H -0.7571844936 3.1264921129 -1.1734361441
H -1.5636660455 1.2174540698 -3.4321633839
H -0.8834431806 2.8385392932 -3.6393718746
H 0.1068427358 1.5400935251 -2.9448361287
H -4.1098415141 -0.3810814198 1.4070790876
H -2.8370168399 -0.9961650302 2.5090701811
H -3.0818695623 1.8578815603 1.4266462361
H -3.4148385195 1.3486974942 3.0904828071
H -1.760569863 1.270339606 2.4548624699
*
