! r2scan-3c def2/J RI DEFGRID2 scfconv6 printgap
%output
    printlevel normal
end
%cpcm
    smd true
    smdsolvent "water"
end
* xyz 0 1
C 2.9617604707 1.5517404584 2.9647004979
C 1.6358119696 0.9247567632 2.589796352
O 1.4749659082 0.8675653079 1.1572744525
P 2.3025747938 -0.1496748726 0.2650974649
S 2.8086503417 -1.8026960239 1.1983733571
O 3.4679228569 0.7964780507 -0.2522184198
C 4.2678837762 0.5825952782 -1.4289714552
C 4.8642687259 -0.8081392215 -1.494876217
S 1.0517853438 -0.3690597815 -1.4306480219
C 0.0596728552 -1.7279678892 -0.7615962101
S -1.0457454836 -1.2007022241 0.5681220428
P -2.254698255 0.0888443102 -0.6382621701
S -2.5401140505 -0.5148480017 -2.4738654417
O -1.6075851209 1.5208604272 -0.5652136917
C -1.4318856117 2.2494885419 0.6753801895
C -2.5337120636 3.273734955 0.8478582197
O -3.5599470545 0.2488061321 0.2514557367
C -4.5004886876 -0.837195835 0.3915923497
C -5.7822884162 -0.2692685277 0.9658977465
H 3.0535116227 2.5366927665 2.5150911088
H 3.0308872609 1.6359046056 4.044577333
H 3.7763127048 0.9249044471 2.603085008
H 0.7910129894 1.523807934 2.9313185546
H 1.5580411969 -0.0911036598 2.9908190605
H 3.6416361413 0.7765051316 -2.3045839281
H 5.0440512184 1.3464300863 -1.3533374847
H 5.4258224224 -1.0248872221 -0.5891319204
H 4.0743943796 -1.5513324182 -1.5980562376
H 5.5258054557 -0.8758700135 -2.3525889655
H 0.7170955658 -2.4894627718 -0.340738858
H -0.5317511877 -2.1173766789 -1.5900017363
H -1.4187864651 1.5357123582 1.503995203
H -0.4516842706 2.7210715658 0.5800205255
H -2.3464496948 3.8500538411 1.7485008373
H -2.556507169 3.941760952 -0.0086468736
H -3.496786157 2.7771368443 0.9310555648
H -4.6639110954 -1.2839227943 -0.5944542216
H -4.0600693277 -1.5858781601 1.055594125
H -6.5021720695 -1.071744866 1.0880629591
H -5.5875585248 0.1883691529 1.9314447914
H -6.1925502545 0.4798830012 0.2945644991
*
