! pbe def2-sv(p) def2/J RI DEFGRID1 loosescf d4 GCP(DFT/SV(P)) printgap
%output
    printlevel normal
end
* xyz 0 1
C 4.1415186459 -2.3392364465 1.3119961912
C 2.8178384385 -1.6026741089 1.2885049497
O 2.574954816 -1.1728653739 -0.0671396028
C 1.5584790841 -0.3941216852 -0.3043668615
O 0.8042495146 0.0423048757 0.5552662672
C 1.3948237175 -0.0382880465 -1.7601397583
C 0.2335724623 0.936928895 -1.8873433547
H 0.211080431 1.3878510227 -2.8827154438
C 0.3163825917 2.0471556829 -0.846459542
O -0.6333179569 2.4874825305 -0.2426382159
O 1.55116645 2.5037679915 -0.7611481638
C 1.8469020309 3.5355982793 0.2027322376
C 2.547026014 2.9329451518 1.40996476
S -1.4023264252 0.1339653721 -1.7769661997
P -1.7071875724 -0.7375898926 0.1319331348
S -0.7948831837 -2.3966412164 0.6789085393
O -1.9349765408 0.388182803 1.2191137572
C -1.2341730689 0.526645811 2.4514767053
O -3.2679213902 -1.0372362166 -0.0869854484
C -3.7208575405 -2.0801014332 -0.9542187544
H 4.3418796713 -2.6793039794 2.3223121554
H 4.0976847943 -3.1969516873 0.6482313664
H 4.9423198279 -1.6816692274 0.9876942173
H 2.8276334319 -0.7190930119 1.9344699046
H 1.9866629118 -2.2472682886 1.5916516675
H 1.2086289001 -0.9455056548 -2.3371415524
H 2.320667824 0.415277386 -2.1170642028
H 2.4945648779 4.2382537803 -0.3230544074
H 0.9108040537 4.022718996 0.4891844831
H 1.9159345646 2.1688520589 1.8611370405
H 3.4876274597 2.478776797 1.1106902004
H 2.7394764076 3.7102068743 2.1418752394
H -1.9867446549 0.7210606021 3.2128226017
H -0.5474081039 1.3674269789 2.3652291952
H -0.6803721517 -0.3849911446 2.6832903443
H -3.6338386752 -1.7676533905 -1.9946377117
H -4.7620939622 -2.2479225358 -0.6903633097
H -3.1360699922 -2.9870617727 -0.7859877829
*
