! pbe def2-sv(p) def2/J RI DEFGRID1 loosescf d4 GCP(DFT/SV(P)) printgap
%output
    printlevel normal
end
* xyz 0 1
C 3.7485602638 -0.6162986625 1.8880366022
C 4.2408746687 -0.7308906259 0.460348304
O 3.6422096848 0.2482778311 -0.4249130381
P 2.0893730723 0.4090314197 -0.7191607336
S 1.8585670351 1.4146747098 -2.3814014834
O 1.4418245139 1.0728235358 0.5831467976
C 1.6075469 2.4819844061 0.8292588658
C 1.0153833462 2.7817185315 2.1897792143
S 1.3259518316 -1.5387277271 -0.6247589857
C -0.0394957709 -1.3986593669 -1.8248501507
S -1.6427416327 -1.7725986879 -1.0943678097
P -1.7970644091 -0.0638746537 0.1743576411
S -1.4369070386 1.623154364 -0.7589892836
O -0.8921186387 -0.2641396468 1.4424403089
C -1.1663470382 -1.1400733263 2.567444382
C -1.1503030388 -2.6055382777 2.1873002695
O -3.2595901665 -0.2116199335 0.7713200573
C -4.426107286 -0.0127830054 -0.0530359408
C -5.6203948014 0.1488644047 0.8651485452
H 2.6802511911 -0.8193401728 1.934015119
H 4.2736029852 -1.3426564033 2.50049516
H 3.9368510259 0.3819775669 2.2759157842
H 4.0329057338 -1.7245339016 0.0559122268
H 5.307589992 -0.51483661 0.381725957
H 2.6743712227 2.7242514777 0.7830958691
H 1.0878347442 3.0312509922 0.0366751286
H -0.0368256275 2.5086547395 2.1925333218
H 1.531160483 2.212850157 2.9578064617
H 1.1116356248 3.8429946313 2.3939390606
H 0.1210155934 -2.1396252939 -2.6039010893
H -0.0368965253 -0.3857771169 -2.2386312626
H -0.3613944914 -0.8982197712 3.2634757369
H -2.1283900069 -0.8533970167 2.9945655402
H -0.2318718629 -2.8517891061 1.6587428092
H -1.2112643671 -3.2017688202 3.092494251
H -1.9976032457 -2.8451084812 1.5489177274
H -4.2681694389 0.8772311981 -0.6709503853
H -4.5350423751 -0.8844236152 -0.7035700093
H -6.5128689786 0.2897557837 0.2645396186
H -5.7381535604 -0.737373858 1.4815709117
H -5.4826428244 1.0128680929 1.5091603348
*
