! pbe def2-sv(p) def2/J RI DEFGRID1 loosescf d4 GCP(DFT/SV(P)) printgap
%output
    printlevel normal
end
* xyz 0 1
C 2.6099123572 0.3391803169 -3.1427378547
C 2.3599114178 -0.9254960112 -2.3470781524
O 3.0350874532 -0.8961552663 -1.077800569
P 2.5368683892 -0.1561886822 0.2376516788
S 2.453464992 1.7983902942 0.2776520887
O 3.6247170661 -0.6372203244 1.2713678031
C 3.9202269678 -2.0324557066 1.5410955459
C 3.4078677167 -2.4167309782 2.9150786271
S 0.7496361071 -1.2008942628 0.7262765767
C -0.0942178657 0.1394930409 1.6344923283
S -1.8866779632 0.0074698325 1.5345482279
P -2.2169102592 0.7310116905 -0.4513397967
S -0.6627809097 0.9370006273 -1.6222699221
O -2.9563096044 2.1106415204 -0.2660674003
C -3.922211068 2.4463456284 0.7597748805
C -5.0627120974 1.4556964312 0.8420004187
O -3.3590447908 -0.2011872925 -1.0454210229
C -3.0757799718 -1.4277454523 -1.739167847
C -2.6090392934 -2.5230993127 -0.8009597555
H 2.1839589654 0.2278855261 -4.1344025547
H 2.1344842178 1.1886067868 -2.6551692716
H 3.676672669 0.5306849441 -3.2226449968
H 2.7820172434 -1.7996970963 -2.8463240412
H 1.2886426476 -1.069112006 -2.184717122
H 3.4737873186 -2.6523901637 0.7608968422
H 5.0076018414 -2.1020924374 1.4875000309
H 3.7958706523 -1.7284544951 3.6608459997
H 2.3212637016 -2.3899057175 2.93864802
H 3.7414598866 -3.4229060164 3.1479667374
H 0.2440180105 1.091391232 1.2158378874
H 0.1526890874 0.0651232602 2.6907447618
H -3.3943824923 2.5114268216 1.7147606235
H -4.2662880344 3.4372911773 0.4595591112
H -4.6934314873 0.4864078734 1.172198005
H -5.7942222915 1.8178531464 1.5577972165
H -5.5344654649 1.3420344766 -0.130349338
H -4.024978634 -1.6835936605 -2.2123202191
H -2.3216697145 -1.2252432103 -2.5068455845
H -1.6272877923 -2.2845382595 -0.3936016274
H -3.3102611089 -2.6402865561 0.020919559
H -2.5399567623 -3.4565831543 -1.3499799834
*
