! pbe def2-sv(p) def2/J RI DEFGRID1 loosescf d4 GCP(DFT/SV(P)) printgap
%output
    printlevel normal
end
* xyz 0 1
C 5.5088573258 0.9442048239 1.2659804869
C 4.3666822028 0.1275902944 1.8347135112
O 3.9224463103 -0.8706247291 0.8804495445
P 2.6876656017 -0.6808416363 -0.0736624246
S 2.411835167 -2.2940937337 -1.1449884457
O 3.0624189825 0.6735551866 -0.8264083214
C 2.1633123355 1.4500968563 -1.634698862
C 1.8378770707 0.7772078419 -2.9523694442
S 1.0725244175 -0.1393252233 1.2279791674
C -0.236433059 -1.1051794532 0.4440817786
S -1.0767031648 -0.213932353 -0.9039595249
P -2.7986114375 0.3802763424 0.1986857686
S -4.1203637256 1.4600653663 -0.7580792343
O -2.2230750248 0.9887824888 1.5473411856
C -2.074622632 2.4092942352 1.7258042515
C -0.9566886955 2.9766529399 0.8743122157
O -3.3329031452 -0.9769157436 0.8373811355
C -4.3426195554 -1.7654191159 0.1845973584
C -3.8263796568 -2.4309331254 -1.0761709014
H 5.1792513098 1.4998855146 0.3925360827
H 5.8604916543 1.6383098319 2.0229069053
H 6.3242951806 0.2880796797 0.974269452
H 3.5184554089 0.7609309277 2.1074713438
H 4.6861278367 -0.4512585108 2.7030737255
H 1.2486397608 1.6410843664 -1.0655673521
H 2.6994159773 2.3879238971 -1.7910995324
H 2.752076016 0.5215896369 -3.4816760385
H 1.2655874526 -0.1334277495 -2.7843723293
H 1.2446243006 1.4520809596 -3.5607638446
H -0.9625123279 -1.3530854081 1.2140000356
H 0.2109366995 -1.9988097852 0.0039778182
H -3.0264226235 2.8906853093 1.4795819245
H -1.8656979812 2.5185957947 2.790619678
H -0.8528353141 4.0371807844 1.0795587617
H -0.0206061434 2.4723363903 1.1015241711
H -1.1941982356 2.8426157889 -0.1813031016
H -4.6312059957 -2.4990974891 0.9387598521
H -5.1935016657 -1.1167727808 -0.0467486817
H -2.9392912994 -3.022723648 -0.8629048916
H -4.5981566874 -3.0785034416 -1.4798939437
H -3.5760900413 -1.6758758174 -1.8210895384
*
