! pbe def2-sv(p) def2/J RI DEFGRID1 loosescf d4 GCP(DFT/SV(P)) printgap
%output
    printlevel normal
end
* xyz 0 1
C 2.699307035 -1.1004684414 -2.5990244289
C 2.860638946 0.2969514663 -2.0357579973
O 3.1952127707 0.2482240896 -0.6366841315
P 2.1762469346 0.4047156325 0.5661448568
S 1.1144225463 2.0520306297 0.647021946
O 3.1503019848 0.3623728831 1.807223561
C 4.3833944944 -0.3929587077 1.9006732432
C 4.1668381387 -1.8877997687 1.7972159735
S 1.0312816168 -1.3909109305 0.6266288175
C -0.3706646722 -0.779798457 1.6136671119
S -1.9821151571 -1.1997005429 0.9075262006
P -2.0757272569 0.2356592453 -0.6629667368
S -0.6988017685 0.1941685338 -2.0476683317
O -2.1540509769 1.6482476327 0.0310781303
C -3.2062648099 2.0743451187 0.9340732992
C -2.7345164947 2.0221210592 2.3741820013
O -3.5608300794 0.0351502374 -1.1989435485
C -3.8861313032 -0.9024379596 -2.2414159574
C -3.6517434101 -2.3372431728 -1.8166805894
H 3.5908025061 -1.6894889474 -2.4035032012
H 1.8373593905 -1.5909182692 -2.1527617912
H 2.538162805 -1.0292676124 -3.6695513085
H 1.9487001701 0.8839948958 -2.175460823
H 3.7012165757 0.8176209433 -2.4987019771
H 5.0572454254 -0.0401709715 1.1181074797
H 4.7707598577 -0.1092533163 2.8805273025
H 5.1153576998 -2.3916187463 1.9554286507
H 3.4543141759 -2.2234642056 2.545986086
H 3.7868322055 -2.1493134198 0.8115944352
H -0.2753237162 0.3068831834 1.6942636323
H -0.3415510898 -1.259312434 2.5883384435
H -3.4160746682 3.1004287092 0.6278087055
H -4.0880841054 1.45162215 0.773797769
H -2.6385163611 0.9943088506 2.7155033985
H -1.7706722455 2.5195456619 2.4617122095
H -3.4568601302 2.5354014455 3.0008543907
H -4.9399346492 -0.7063215083 -2.4441330373
H -3.2848461966 -0.6586662029 -3.1227522943
H -4.0258381832 -3.0037298758 -2.5870697144
H -2.5854669086 -2.5157156487 -1.6840633851
H -4.1615060954 -2.5440367289 -0.8789448998
*
