! pbe def2-sv(p) def2/J RI DEFGRID1 loosescf d4 GCP(DFT/SV(P)) printgap
%output
    printlevel normal
end
* xyz 0 1
C -1.3775312222 -0.0241975555 -0.4000406689
C -0.735219367 -1.1855756165 0.3533547014
C 0.7648387438 -1.221524134 0.0194056744
O 1.256388526 0.0354637127 -0.4190585979
C 0.7336837659 1.1087555229 0.3402169857
C -0.7777849238 1.292387877 0.103322307
H -2.458105816 -0.0239332613 -0.2607853082
H -1.1675162649 -0.1368408235 -1.4654724318
H -0.8805830348 -1.0400420301 1.4251596736
H -1.1933677385 -2.1330238044 0.0735331318
H 1.3452800038 -1.5526084202 0.8942458567
H 0.9680937805 -1.9004075824 -0.8113987288
H 0.9387146766 0.9295941553 1.4053553062
H 1.2970797356 1.9873959836 0.0225695508
H -1.2526645458 1.5878398344 1.0392100441
H -0.9526520663 2.0784150758 -0.630739005
*
