! pbe def2-sv(p) def2/J RI DEFGRID1 loosescf d4 GCP(DFT/SV(P)) printgap
%output
    printlevel normal
end
* xyz 0 1
C 4.6773610409 -0.0986261107 -1.8711754925
C 4.5115483459 0.9708798863 -0.8114479416
O 3.6021273581 0.5740663702 0.2304622594
P 2.0476658331 0.3560258143 -0.019917134
S 1.1945477879 1.6442025558 -1.2255342601
O 1.4687840786 0.445466719 1.4470830155
C 2.0830009348 -0.1826956941 2.6091584821
C 1.3855220955 -1.4780044471 2.9723179414
S 1.9253514889 -1.6829344775 -0.6073098866
C 0.1902751853 -1.6959286452 -1.1070930861
S -0.959942708 -1.4739276084 0.2856454656
P -2.0364499294 0.2473944978 -0.345356944
S -2.0670363532 0.5525174874 -2.2761833656
O -1.5087051463 1.4689597662 0.4972382401
C -1.5261485523 1.4913367449 1.9462194127
C -2.714168853 2.2793421309 2.4563154847
O -3.4705849762 0.0160144335 0.307194999
C -4.4335114412 -0.90052491 -0.2497701944
C -4.4418517293 -2.2152019942 0.5061249952
H 4.9196411446 -1.0538138845 -1.4121745328
H 3.7555958495 -0.2047353702 -2.4411884322
H 5.4751806767 0.1903162509 -2.5478076054
H 4.1409895391 1.8995919587 -1.2560851253
H 5.4449769548 1.159613635 -0.2790836192
H 3.1416495047 -0.3438563682 2.4027335484
H 1.9717069575 0.5613792725 3.3995434212
H 1.5158781251 -2.2227554061 2.1915455477
H 1.8147954514 -1.8547366755 3.8953210544
H 0.3217902629 -1.3107250434 3.1159561227
H 0.0092238638 -2.6765270678 -1.5396720819
H 0.0020732958 -0.9034270944 -1.837035893
H -1.5433861812 0.4615069622 2.3138830479
H -0.5810419666 1.9642593746 2.2207543728
H -2.6609876976 2.337963806 3.538960997
H -2.6993916641 3.2829945403 2.0398230206
H -3.6412618662 1.7928697192 2.1653965814
H -5.3915680959 -0.3857298406 -0.1540751956
H -4.2093017444 -1.0448385461 -1.3115906668
H -4.6330093986 -2.0367275651 1.5603326444
H -5.2273190717 -2.8456775029 0.1021642111
H -3.4875827753 -2.7253297431 0.4040027635
*
