! r2scan-3c def2/J RI DEFGRID2 scfconv6 printgap
%output
    printlevel normal
end
%cpcm
    smd true
    smdsolvent "water"
end
* xyz 0 1
C 0.6424414996 1.6867474474 -0.0423759803
C 1.4081391621 0.3823292995 -0.2706307653
H 1.5983826626 0.2479373255 -1.347267847
C 0.5433620802 -0.7905781565 0.2087265993
H 0.3792565986 -0.6922603443 1.2940276884
C -0.8134096663 -0.7433716591 -0.5092847404
H -0.6522763623 -0.8965981827 -1.581421748
C -1.4639525841 0.6350940318 -0.2900912187
H -2.3467895191 0.7308781169 -0.9387200408
O -0.6185396808 1.6813396544 -0.6926234619
O -1.8149267044 0.7124916719 1.0573667612
O -1.6553481952 -1.7802713359 -0.0799133909
O 1.2310685113 -1.989108316 -0.0676438709
O 2.6200665282 0.460348934 0.4347421634
H 1.1897969707 2.5288809394 -0.4629086243
H 0.5214262932 1.8327163216 1.0373336118
H -2.3345410295 1.5128049102 1.2253495846
H -2.0077929009 -1.5467255755 0.7943691473
H 0.6057367887 -2.7260725792 0.0013769772
H 3.0470800542 -0.4090456453 0.3978963999
*
