! r2scan-3c def2/J RI DEFGRID2 scfconv6 printgap
%output
    printlevel normal
end
* xyz 0 1
C 1.3129621721 -3.6305449651 -2.1745615225
C 2.5624693913 -2.7649718271 -2.2006294701
O 2.3548099869 -1.5704333599 -1.4240030982
C 2.7474355543 -1.5580823542 -0.1655719961
O 3.345769461 -2.4566381042 0.3805778168
C 2.3869204317 -0.254886347 0.5272187398
C 0.9873927238 0.2162499718 0.1476541644
H 0.9174607272 0.3554724707 -0.9361195559
C 0.6232399846 1.527065559 0.8187670064
O -0.3869831388 1.6719476172 1.4774400171
O 1.5071683532 2.4581672906 0.5916457872
C 1.2431954637 3.7762415033 1.1216265053
C 2.3693024881 4.689013233 0.6816162232
S -0.2599213008 -1.0288580736 0.63115306
P -1.997861873 0.0442841234 0.0413501949
S -1.7642102613 1.4022390764 -1.3477183851
O -2.9427141453 -1.1690258914 -0.428835076
C -2.6529948318 -1.9267982837 -1.6061456586
O -2.8344965135 0.5316864926 1.28718867
C -3.0769047141 -0.3009123782 2.4368086252
H 1.4762351426 -4.517522302 -2.777391419
H 1.0896536229 -3.9298053021 -1.1527890228
H 0.4677020328 -3.0766148574 -2.574384571
H 2.780104771 -2.4111247451 -3.2088079894
H 3.4210546356 -3.3034196617 -1.7902438665
H 3.1047579378 0.5092067662 0.2213277251
H 2.4701240571 -0.4150574878 1.6026796423
H 0.2726299782 4.1063217628 0.7382636756
H 1.1772905844 3.7000105626 2.2109547661
H 3.3162931215 4.3321764463 1.074575337
H 2.4235153413 4.7153581717 -0.4024509355
H 2.1816132069 5.6903432209 1.0541992541
H -1.819726684 -2.6026503037 -1.4132329784
H -2.4107199452 -1.2564644214 -2.4327165589
H -3.5579151354 -2.487502929 -1.8257357202
H -2.1334496851 -0.5178528633 2.9374925411
H -3.5667907901 -1.2246902657 2.1337703575
H -3.7231805152 0.2901491898 3.0803174612
*
