! pbe def2-sv(p) def2/J RI DEFGRID1 loosescf d4 GCP(DFT/SV(P)) printgap
%output
    printlevel normal
end
* xyz 0 1
C 4.7061042994 1.0943093368 -1.8742098025
C 4.1415581348 -0.0364687094 -1.0393364669
O 3.2256761678 0.5403638969 -0.0697434999
P 2.1222470262 -0.2940013649 0.6841333919
S 1.346444688 0.7915076687 2.1136165787
O 2.935029738 -1.5818641885 1.1475429659
C 2.3518021228 -2.852604806 1.488488337
C 1.1972284489 -2.7262360379 2.4597012535
S 0.8899756699 -1.1209528794 -0.8710657655
C 0.5366114426 0.3884446361 -1.8067096573
S -0.3618973109 1.6525226269 -0.8620311559
P -2.040657895 0.457604316 -0.3992334727
S -2.6467963684 -0.7397085986 -1.8342905673
O -3.1499905881 1.4688901989 0.1201345918
C -4.115950711 2.061257282 -0.7668935893
C -3.4823640833 3.0731458243 -1.6989253218
O -1.5352186562 -0.1918735497 0.9537834653
C -2.3910017723 -0.7445789543 1.9771039846
C -2.9559734535 -2.0906717368 1.5709389064
H 5.4193051855 0.688995053 -2.5847077196
H 3.9145765377 1.606223867 -2.415163977
H 5.206225495 1.8139135918 -1.232472913
H 4.9258227666 -0.5519724434 -0.4826643202
H 3.6000087667 -0.7635859544 -1.6513642174
H 2.0246207545 -3.3332085899 0.5617099538
H 3.1829415757 -3.4104425407 1.9234472628
H 0.391409345 -2.1542097288 2.000045695
H 0.8303084719 -3.7141545348 2.7191553772
H 1.514052181 -2.20705116 3.3613022779
H -0.0707264851 0.0662160608 -2.6530257141
H 1.4599863599 0.8568342671 -2.1380234144
H -4.5962148308 1.2600895965 -1.3380728306
H -4.8382681995 2.5265724111 -0.0949585831
H -2.8107351619 2.5691592575 -2.3927614416
H -4.2596006428 3.5776625646 -2.2637028539
H -2.9131976255 3.8053554655 -1.1313781809
H -1.7296053091 -0.8239363052 2.8427728212
H -3.1859503298 -0.0267147597 2.1905207929
H -2.1529292506 -2.7710022368 1.2973050208
H -3.5143085996 -2.5093213153 2.4021318619
H -3.6192132857 -1.9794952256 0.7147705211
*
