! pbe def2-sv(p) def2/J RI DEFGRID1 loosescf d4 GCP(DFT/SV(P)) printgap
%output
    printlevel normal
end
* xyz 0 1
C 4.6315751056 1.2294963657 -1.5599231192
C 4.8384204207 -0.0316952474 -0.7469872561
O 3.6166968398 -0.7704481098 -0.5584037429
P 2.4050635604 -0.212110851 0.3077151438
S 2.8955489568 0.759007793 1.9302391366
O 1.5958210036 -1.5308655144 0.6145397225
C 1.3552693997 -2.5567444866 -0.3846106663
C 0.4425402528 -3.5931532246 0.2337614746
S 1.2292044425 0.8707381439 -1.1098771034
C 0.3346978687 1.8754827497 0.1035915765
S -0.6885702204 0.908584586 1.2470910291
P -2.2216277379 0.3247360878 -0.1086534652
S -1.7827901472 -1.052767686 -1.4376095501
O -2.6318173034 1.7578286839 -0.6455006626
C -3.9544332128 2.100570075 -1.1195069693
C -4.3631436678 1.2839368026 -2.3271878792
O -3.4485343233 -0.0588343672 0.825754058
C -3.6300770139 -1.3955814037 1.3208082895
C -2.6884525706 -1.694120211 2.4696134568
H 4.0395106279 1.9454672426 -0.9920450013
H 5.5968229581 1.6716846875 -1.7845611745
H 4.1124991163 1.0018132379 -2.4877290173
H 5.2490706017 0.2089104991 0.2383181246
H 5.4904289755 -0.7398840686 -1.2602643333
H 0.8909117305 -2.09197748 -1.2596807729
H 2.3188172788 -2.9828373565 -0.668587493
H -0.5338027428 -3.1591848594 0.4313810469
H 0.3246226374 -4.4176787057 -0.4614707048
H 0.8668005762 -3.956365649 1.165293396
H -0.2871249995 2.5710039926 -0.4532974035
H 1.0550466908 2.3975450706 0.7337746265
H -4.6584372339 1.9639527171 -0.2962585208
H -3.8675455372 3.1606553963 -1.3636578711
H -5.3229650562 1.6363625826 -2.691643307
H -3.6212669325 1.3776130068 -3.1169148676
H -4.4487560819 0.2317651896 -2.0593105216
H -4.6731264171 -1.4252330254 1.6385073005
H -3.4720947129 -2.096406382 0.4933695577
H -2.8862736096 -2.6905484828 2.8514227874
H -1.6535835165 -1.6425066332 2.1305574215
H -2.8220121949 -0.9674461689 3.2666196645
*
