! r2scan-3c def2/J RI DEFGRID2 scfconv6 printgap
%output
    printlevel normal
end
* xyz 0 1
C 4.5706147614 -3.3721595927 -2.0518028302
C 3.6601748434 -3.6191081426 -0.8593024584
O 3.3313014318 -2.383000916 -0.1959611071
C 2.3045526986 -1.6851406122 -0.640491556
O 1.5864654035 -2.0186243417 -1.5559706483
C 2.1418743667 -0.3994415321 0.1495922357
C 0.7539296959 0.1820583999 -0.0614137207
H 0.5093784996 0.1655580244 -1.1322889547
C 0.5872302671 1.6102965916 0.4194348662
O -0.4238116667 1.9874561923 0.9760291253
O 1.6147673885 2.3606757189 0.1274433599
C 1.5611277404 3.7609536868 0.4819812781
C 1.9714114466 3.9717182674 1.9298443109
S -0.5084788865 -0.8301742594 0.7851160803
P -2.2258711855 0.2085977267 0.0911760688
S -2.0616654685 1.2479467772 -1.5594860403
O -3.2567161306 -1.019895764 -0.0642445159
C -3.0975796196 -1.989894952 -1.1008903433
O -2.9334443861 0.9712347617 1.2770762112
C -3.1772304272 0.356109763 2.5571895095
H 4.0507044484 -2.7827810301 -2.8037211419
H 5.4634199632 -2.8388238733 -1.7374522052
H 4.8568546772 -4.3235663348 -2.4877524756
H 4.1593210477 -4.2134101291 -0.0940568492
H 2.7316617063 -4.103282794 -1.1744432623
H 2.886512016 0.3153028497 -0.208184587
H 2.3331428863 -0.6060625184 1.2024325893
H 2.2595607157 4.2352488857 -0.2070517922
H 0.5448340622 4.1238809684 0.3054716422
H 2.9623675172 3.5621215875 2.1035623408
H 1.9811172808 5.0351602402 2.1444742452
H 1.2614934952 3.4856489146 2.5951028462
H -2.203488439 -2.5883530146 -0.921664722
H -3.0180325113 -1.4929952325 -2.06935867
H -3.9891810053 -2.6100771765 -1.0623395056
H -3.8850894249 -0.4633182118 2.445340374
H -3.591130109 1.1489315465 3.174620606
H -2.2402451626 -0.0099986508 2.9770704265
*
