! pbe def2-sv(p) def2/J RI DEFGRID1 loosescf d4 GCP(DFT/SV(P)) printgap
%output
    printlevel normal
end
* xyz 0 1
C 4.2364730502 0.0493315956 -2.1819395594
C 4.4082672679 -0.3458590547 -0.7287113488
O 3.1504521219 -0.6257432633 -0.0933157432
P 2.1126111441 0.5329744852 0.2683202385
S 2.9123586116 2.2259574877 0.8395796914
O 1.1795216106 -0.186990239 1.3255057291
C 1.443823249 -0.1444210834 2.7405510008
C 2.6567896375 -0.9712025963 3.1111174095
S 0.7860601108 0.630678256 -1.3731920724
C 0.4144706572 -1.1290056202 -1.6073938359
S -0.6336181747 -1.862063733 -0.311367034
P -2.1408478487 -0.4051480646 -0.2746159218
S -2.7143078375 0.3696665661 -1.9872411418
O -1.6012945247 0.5880420865 0.8368083938
C -2.1975511108 1.8865058769 1.0573539766
C -1.3541638397 2.9757012522 0.424667124
O -3.3170837727 -1.1232484863 0.521939006
C -4.2311254518 -2.0339625807 -0.1231607375
C -5.4764722348 -2.1340584709 0.7342846285
H 3.7065622674 -0.7240035142 -2.7319681139
H 3.6720697101 0.9791323681 -2.2497140587
H 5.2137443185 0.1992463915 -2.62958501
H 4.9057691066 0.455422676 -0.172913924
H 4.9704413502 -1.2750402872 -0.6255624393
H 1.5810727128 0.9010748117 3.0357798874
H 0.5294295448 -0.5394001905 3.1861575607
H 2.751397578 -1.0050337256 4.1919887998
H 2.5535296869 -1.9813932704 2.7236065807
H 3.5545051287 -0.5198516104 2.6911300768
H 1.3331071487 -1.710384293 -1.6178860795
H -0.10533218 -1.1832198487 -2.5627014426
H -3.2108580879 1.8922139071 0.646220217
H -2.2402102092 1.9933630097 2.1425227911
H -1.7693306836 3.9454413221 0.6793978378
H -0.3291999952 2.9209683234 0.787124235
H -1.3434587759 2.8654470184 -0.6580956818
H -4.4597516351 -1.6473158232 -1.1221122053
H -3.7329422183 -3.0021410175 -0.218069358
H -5.2129526039 -2.4759358055 1.7309981773
H -5.9588897904 -1.1637058877 0.8109218267
H -6.1637571413 -2.8405102322 0.280678843
*
