  25
        -26.58115137
 C          4.4679994232        0.2811488531       -0.0004264001
 C          3.1814034921       -0.5360202858       -0.0014459194
 C          1.9413351288        0.3552316363        0.0014232667
 C          0.6484160361       -0.4569882194        0.0015629649
 C         -0.5901861332        0.4365111593       -0.0004522996
 C         -1.8829940869       -0.3744079888        0.0003110706
 C         -3.1258912871        0.5262247826       -0.0004707319
 N         -4.3962214583       -0.1836987112       -0.0004215801
 H          5.3366076373       -0.3726927914       -0.0055407078
 H          4.5131520353        0.9205760861       -0.8791842545
 H          4.5171903876        0.9121293307        0.8841974315
 H          3.1603252906       -1.1786682799       -0.8845627537
 H          3.1616502557       -1.1831181555        0.8784567843
 H          1.9607072321        1.0019263733       -0.8789773310
 H          1.9626989778        0.9991177688        0.8838136621
 H          0.6289681041       -1.1034787641       -0.8791699731
 H          0.6277009145       -1.1014094204        0.8837822529
 H         -0.5712572676        1.0832240031        0.8797389331
 H         -0.5703661264        1.0802768396       -0.8827961066
 H         -1.9071366827       -1.0198246449       -0.8824382208
 H         -1.9070669782       -1.0186460588        0.8839392065
 H         -3.1088022264        1.1703893771        0.8831487350
 H         -3.1084693902        1.1697525146       -0.8845879275
 H         -4.4489472825       -0.7832739558        0.8167205982
 H         -4.4482414019       -0.7845699431       -0.8166633458
