! pbe def2-sv(p) def2/J RI DEFGRID1 loosescf d4 GCP(DFT/SV(P)) printgap
%output
    printlevel normal
end
* xyz 0 1
C 5.5273198325 -0.8089679567 -1.2656886098
C 4.2029464717 -1.5409696552 -1.3345458724
O 3.1435148377 -0.6574655702 -1.7804802675
P 2.1755181033 0.1206947514 -0.8091193211
S 0.9169077085 1.1795954018 -1.8697721797
O 3.1919565791 0.9086485664 0.1173565034
C 2.8256696931 1.8493398806 1.1444779835
C 2.8249769062 1.1871787943 2.5075708081
S 1.342817291 -1.3932601754 0.437062527
C -0.0988208603 -1.8022885589 -0.5995223483
S -1.6536737401 -1.8329486924 0.3212882494
P -2.031283111 0.264806768 0.4480843169
S -0.7033017257 1.2979863436 1.4474583578
O -3.4929712113 0.3001339629 1.0630468363
C -3.7236676321 -0.018554251 2.4519451552
C -5.0918468321 0.511056847 2.8295187178
O -2.2414836955 0.8143007534 -1.0095906123
C -3.4421839783 0.6890006742 -1.8121505991
C -3.7405602062 -0.7431379446 -2.2025966528
H 6.3082206588 -1.5143638945 -0.999212604
H 5.7573205234 -0.365317643 -2.2305218757
H 5.4855075817 -0.0200421464 -0.5198917505
H 3.9280542215 -1.9594584933 -0.3620896246
H 4.2261378277 -2.3322251847 -2.0859782603
H 3.5855676304 2.6306546691 1.0821079088
H 1.845440856 2.2774396975 0.9160095886
H 2.6525965751 1.9450734781 3.264570769
H 2.0278572264 0.4499950729 2.5703918829
H 3.7789361187 0.7007695037 2.6894626974
H 0.0316845045 -2.8066623833 -0.9929652057
H -0.162255826 -1.0584318979 -1.3986508136
H -3.6685847501 -1.1045104276 2.5626797958
H -2.9325501023 0.4441844265 3.0510957835
H -5.853489088 0.0563847618 2.2029034912
H -5.2902458708 0.2700238091 3.8685544536
H -5.1243389101 1.58929605 2.6997822963
H -4.2711500566 1.1249040986 -1.2524787282
H -3.2140158482 1.3045863018 -2.6840621513
H -4.5850038601 -0.7493517696 -2.8848978919
H -2.8813297102 -1.1876514032 -2.6991505022
H -3.9895095529 -1.33529387 -1.3249242954
*
