! pbe def2-sv(p) def2/J RI DEFGRID1 loosescf d4 GCP(DFT/SV(P)) printgap
%output
    printlevel normal
end
* xyz 0 1
C 4.4821727437 0.6987708329 -2.1475026002
C 3.1406868249 -0.0034948574 -2.1108557217
O 2.2725638674 0.5902949694 -1.1150791439
P 2.132001388 0.0925040458 0.371923015
S 0.9232350756 1.2343038668 1.3986663082
O 3.6297271635 0.0717997682 0.9033747882
C 3.9509087086 0.0451954383 2.3062405555
C 3.5004857058 -1.2377185615 2.9734338011
S 1.6895330124 -1.9875454941 0.2089764117
C 0.07490491 -1.8922801908 -0.5983721832
S -1.2608149477 -1.3850912649 0.5346503106
P -2.1225345053 0.1349581019 -0.6867727465
S -0.9199706848 1.0699578495 -1.9131205225
O -2.9579808957 1.0166827651 0.3310215612
C -2.390686179 2.0363057152 1.1743418369
C -3.5189864399 2.9430218835 1.6203810661
O -3.2470480402 -0.6044213599 -1.5069126789
C -4.3025677707 -1.3990511694 -0.910181722
C -5.5483710217 -0.5679195924 -0.6831898086
H 4.3390539937 1.7635902541 -2.310536693
H 5.0095928881 0.5540516037 -1.208566852
H 5.0735170504 0.2877393424 -2.9597686745
H 3.2586830018 -1.0683934932 -1.8906680204
H 2.5955037616 0.1267975672 -3.0482667672
H 5.0363663846 0.1515775842 2.3257999707
H 3.4822067837 0.9119298011 2.7823103754
H 3.8737228673 -1.2618541559 3.9921750031
H 2.41232999 -1.282304972 2.9963709228
H 3.8755240323 -2.1008492085 2.4290248798
H -0.1370244087 -2.8963585655 -0.9557901663
H 0.1131782672 -1.1709584888 -1.4196279659
H -1.9003136144 1.5531053129 2.0234827474
H -1.6315227927 2.5840858801 0.6069906196
H -3.9940672283 3.400271885 0.7567641972
H -4.2587143741 2.3714712722 2.173326493
H -3.1133841452 3.7195790611 2.2601755364
H -4.4816239478 -2.192827609 -1.6375226549
H -3.9345980675 -1.8283978881 0.0261747373
H -5.8633521228 -0.1080468017 -1.61587014
H -6.3408099524 -1.2118547021 -0.3146609152
H -5.3537479197 0.2146491218 0.0448342742
*
