  20
        -19.99422283
 C          3.1830357606        0.2224171828       -0.0007064631
 C          1.8689686592       -0.5498273406       -0.0000211727
 C          0.6601515670        0.3833706143        0.0009255080
 C         -0.6601682457       -0.3833888175        0.0006768030
 C         -1.8689656679        0.5498430869       -0.0001509800
 C         -3.1830225812       -0.2224157522       -0.0005898201
 H          4.0286367123       -0.4609757119       -0.0021218296
 H          3.2529651068        0.8549169723        0.8814480213
 H          3.2511741132        0.8563375160       -0.8819893563
 H          1.8268060730       -1.1939064385        0.8812931673
 H          1.8256794767       -1.1933951827       -0.8816562458
 H          0.7028144351        1.0283407066       -0.8801335283
 H          0.7032494675        1.0272759509        0.8827339776
 H         -0.7033968702       -1.0275854343        0.8822675958
 H         -0.7026833233       -1.0280751751       -0.8805998777
 H         -1.8266967803        1.1939527611        0.8811342732
 H         -1.8257853014        1.1933870487       -0.8818102664
 H         -3.2529252616       -0.8547590515        0.8816789479
 H         -4.0286140205        0.4609797816       -0.0020758168
 H         -3.2512177731       -0.8564815131       -0.8817644333
  20
        -19.99333115
 C          3.0129333425        0.1457190520       -0.3104356209
 C          1.5560345699       -0.2905861454       -0.4148583197
 C          0.7223407537        0.2523168260        0.7444363062
 C         -0.7221931171       -0.2492735701        0.7452817119
 C         -1.5567453739        0.2914062788       -0.4143963100
 C         -3.0124112816       -0.1492891551       -0.3108972678
 H          3.0861833700        1.2309683920       -0.3211025326
 H          3.5905897495       -0.2461157092       -1.1440906505
 H          3.4546292345       -0.2173739469        0.6150281192
 H          1.5034344383       -1.3817904202       -0.4145568838
 H          1.1455533833        0.0630147955       -1.3619372299
 H          0.7246941215        1.3444446263        0.7094630709
 H          1.1957329746       -0.0478175749        1.6827393124
 H         -1.1950769588        0.0523483871        1.6833592928
 H         -0.7244322792       -1.3414659513        0.7121473257
 H         -1.5073063146        1.3827556975       -0.4138817436
 H         -1.1446174914       -0.0608511849       -1.3612535165
 H         -3.4557202755        0.2121326687        0.6144417965
 H         -3.5908337208        0.2410089962       -1.1447309793
 H         -3.0823403723       -1.2347538248       -0.3219379439
  20
        -19.99328780
 C          2.9486932598        0.2838153860       -0.5015270600
 C          1.8167950943       -0.4446406046        0.2136439449
 C          0.4674474311        0.2314083628       -0.0204027386
 C         -0.6677776081       -0.5019705382        0.6910852560
 C         -2.0195344721        0.2024679674        0.5656412895
 C         -2.5714688865        0.1961878843       -0.8556745975
 H          2.7706053958        0.3038741272       -1.5744132088
 H          3.8986814850       -0.2128276551       -0.3198871639
 H          3.0237237434        1.3098647439       -0.1482158775
 H          2.0246492286       -0.4740063728        1.2858460313
 H          1.7679866742       -1.4767096190       -0.1412316830
 H          0.2711863420        0.2642872984       -1.0933545894
 H          0.5135635380        1.2613182260        0.3420949826
 H         -0.4165391320       -0.5889330468        1.7513289639
 H         -0.7513139478       -1.5145120321        0.2890021380
 H         -2.7341818850       -0.2991813383        1.2224216247
 H         -1.9207970815        1.2337765063        0.9119361441
 H         -1.9350962989        0.7699255250       -1.5239465754
 H         -2.6384121927       -0.8222677903       -1.2318942805
 H         -3.5660625426        0.6354485300       -0.8751667710
  20
        -19.99245233
 C          2.5101698894        0.2766987898       -0.7525019817
 C          1.9096966306       -0.4220169461        0.4624088173
 C          0.4022135089       -0.6497239592        0.3407798430
 C         -0.4024518634        0.6494311723        0.3426038776
 C         -1.9099786559        0.4213994050        0.4629394816
 C         -2.5096802575       -0.2758457317       -0.7532135370
 H          2.2814099503       -0.2773624098       -1.6602320199
 H          3.5911993497        0.3421418761       -0.6535785920
 H          2.1177305242        1.2847803100       -0.8550958932
 H          2.1141510848        0.1690677513        1.3582258731
 H          2.3981377459       -1.3913180417        0.5884353571
 H          0.0739821337       -1.2653516369        1.1823017135
 H          0.2031095442       -1.2061835870       -0.5766374085
 H         -0.2029737042        1.2086908530       -0.5730207119
 H         -0.0746155834        1.2625007520        1.1861273354
 H         -2.1149808386       -0.1708480016        1.3578575222
 H         -2.3985112078        1.3905067371        0.5899116822
 H         -3.5909822757       -0.3391173193       -0.6562183459
 H         -2.2781721842        0.2778939044       -1.6604583435
 H         -2.1191181201       -1.2847187104       -0.8552510606
  20
        -19.99236663
 C          2.7394803501        0.2491684443       -0.5719913576
 C          1.4140715444       -0.4309452606       -0.2484095814
 C          0.5309111661        0.4511351577        0.6318116454
 C         -0.7508072135       -0.2396160208        1.1010868611
 C         -1.7174450952       -0.6383384002       -0.0159560380
 C         -2.2498215079        0.5521344249       -0.8056912617
 H          2.5676223685        1.1873876443       -1.0951990919
 H          3.3533347059       -0.3888862630       -1.2032352971
 H          3.2914812407        0.4635363785        0.3406285506
 H          1.6065382323       -1.3750890876        0.2667090464
 H          0.8958992876       -0.6596289438       -1.1810387811
 H          0.2817032221        1.3664726061        0.0925566278
 H          1.1024223713        0.7423118759        1.5170777577
 H         -1.2723906768        0.4307386504        1.7889897413
 H         -0.4785317120       -1.1382497468        1.6606431989
 H         -1.2276919046       -1.3372581438       -0.6957631097
 H         -2.5602499830       -1.1645740180        0.4390217286
 H         -1.4543063250        1.0373160437       -1.3648381861
 H         -3.0087615745        0.2254076590       -1.5127820361
 H         -2.6965346859        1.2833608002       -0.1354197832
  20
        -19.99223364
 C          2.7311325476        0.3607791297       -0.3111513493
 C          1.8106933188       -0.6843856439        0.3097290668
 C          0.4118625968       -0.1510060674        0.6249225281
 C         -0.4120749906        0.1511793578       -0.6255244442
 C         -1.8110392597        0.6842084583       -0.3102953139
 C         -2.7306065342       -0.3607517084        0.3122427713
 H          2.3651028469        0.6768003348       -1.2843191089
 H          3.7300844963       -0.0484435040       -0.4424298194
 H          2.8001655904        1.2353297580        0.3320926266
 H          2.2630653004       -1.0408085611        1.2383031136
 H          1.7252392605       -1.5395092126       -0.3646616295
 H          0.5007396355        0.7573752261        1.2257875446
 H         -0.1110636623       -0.8970282108        1.2258990777
 H         -0.5008191735       -0.7572023333       -1.2264158807
 H          0.1107414174        0.8972795009       -1.2265164897
 H         -1.7257897084        1.5401111696        0.3631262979
 H         -2.2639916060        1.0393506937       -1.2390690565
 H         -2.3646513780       -0.6744991115        1.2861680361
 H         -3.7300948903        0.0475527036        0.4423145767
 H         -2.7983429595       -1.2365888110       -0.3293647747
  20
        -19.99145584
 C          2.3644223841        0.5049033913        0.4608453848
 C          1.4144524295       -0.6830065891        0.3573602925
 C          0.4746330271       -0.6018266852       -0.8469307738
 C         -0.4744962795        0.5991143726       -0.8483874543
 C         -1.4136796811        0.6835295030        0.3561644620
 C         -2.3652740100       -0.5028337924        0.4618480640
 H          1.8200063687        1.4238893857        0.6614435491
 H          2.9202767510        0.6282757953       -0.4662294272
 H          3.0751639317        0.3492274650        1.2692659508
 H          0.8324824124       -0.7643197546        1.2767533106
 H          2.0039241071       -1.5987322095        0.2648937481
 H         -0.1111644143       -1.5216869360       -0.8950092248
 H          1.0788819202       -0.5550594933       -1.7567397930
 H         -1.0791686912        0.5499345861       -1.7577928352
 H          0.1113710711        1.5187782900       -0.8991950227
 H         -0.8311913909        0.7654084458        1.2751794197
 H         -2.0019331747        1.5999260552        0.2625540421
 H         -1.8219060588       -1.4227573495        0.6608925007
 H         -3.0737380780       -0.3462362805        1.2720648355
 H         -2.9236943843       -0.6252203611       -0.4637945195
  20
        -19.99144885
 C          2.3900036229        0.4979629905       -0.4423122310
 C          1.4221556955       -0.6773166845       -0.3628468597
 C          0.4734141725       -0.5982999408        0.8345998847
 C         -0.4740648049        0.6038578897        0.8321827962
 C         -1.4243524741        0.6768046699       -0.3644411618
 C         -2.3873255900       -0.5026923999       -0.4408882179
 H          2.9423833733        0.5983106382        0.4895995210
 H          1.8605238428        1.4280795976       -0.6310609515
 H          3.1030430594        0.3448847502       -1.2491521256
 H          1.9980469844       -1.6023192046       -0.2775960929
 H          0.8471691844       -0.7382013146       -1.2881773122
 H          1.0713978855       -0.5550007223        1.7486998981
 H         -0.1142126406       -1.5172590923        0.8760913094
 H          0.1133692276        1.5231802460        0.8682640122
 H         -1.0708720252        0.5650356418        1.7472610709
 H         -2.0038899372        1.5996151478       -0.2801051411
 H         -0.8506232969        0.7385357786       -1.2905146465
 H         -1.8545163647       -1.4303592486       -0.6323323504
 H         -2.9356881275       -0.6060534550        0.4930626277
 H         -3.1041127119       -0.3522207453       -1.2448898657
  20
        -19.99045238
 C          2.6802296163       -0.0867730617        0.7064826336
 C          1.3834567123       -0.5656850840        0.0638486805
 C          0.5785034443        0.5977382407       -0.5147916661
 C         -0.7533553896        0.1659468685       -1.1455962158
 C         -1.9727617297        0.3851403973       -0.2473806911
 C         -1.9652098561       -0.4607818125        1.0202006077
 H          3.2457310936       -0.9276656242        1.1006069274
 H          2.4697696866        0.5992848679        1.5241649653
 H          3.2985323903        0.4318906748       -0.0230987007
 H          0.7883132709       -1.0977300467        0.8066856720
 H          1.6172817813       -1.2701460369       -0.7380351474
 H          1.1942484802        1.0897824413       -1.2713943885
 H          0.3879385339        1.3318271645        0.2709527730
 H         -0.6975787469       -0.8888668316       -1.4229531161
 H         -0.9144498624        0.7345208913       -2.0641422162
 H         -2.0297597630        1.4417800163        0.0248427927
 H         -2.8698753034        0.1466256483       -0.8242732632
 H         -1.1444410106       -0.1759074172        1.6727281600
 H         -2.8951643658       -0.3239816048        1.5677547047
 H         -1.8649851778       -1.5154820266        0.7732532256
  20
        -19.99040335
 C          2.1898489354        0.7820012065       -0.7198795160
 C          1.7593393644       -0.5468092464       -0.1065773098
 C          0.7718935947       -0.3866575392        1.0587620693
 C         -0.6943599407       -0.6006288859        0.6770950227
 C         -1.2462993921        0.4365359873       -0.2979957177
 C         -2.7415228186        0.2470023799       -0.5284806275
 H          1.3358321854        1.3378305848       -1.0957803637
 H          2.8783406974        0.6111661556       -1.5446758282
 H          2.6948058759        1.3944105668        0.0242108982
 H          2.6545491492       -1.0609437894        0.2502037409
 H          1.3113967981       -1.1768332790       -0.8775060980
 H          0.8877684458        0.6069506995        1.4965785705
 H          1.0176366329       -1.1141433777        1.8356435536
 H         -1.2937772369       -0.5715698572        1.5910420454
 H         -0.8094158308       -1.5970376966        0.2429447596
 H         -1.0657460035        1.4376149140        0.1004146000
 H         -0.7276648448        0.3545018389       -1.2542648317
 H         -2.9412612117       -0.7422248702       -0.9346732197
 H         -3.2880611622        0.3486563904        0.4066509084
 H         -3.1179661631        0.9885949229       -1.2289812302
  20
        -19.99022807
 C          3.1005556844        0.2143811614        0.3343821108
 C          1.8476657313       -0.5230869565       -0.1233283477
 C          0.6006824139        0.3519433521       -0.0158709901
 C         -0.6587540886       -0.3823995551       -0.4725680114
 C         -1.9259619685        0.4821090856       -0.3497669744
 C         -2.9734423221       -0.1477959206        0.5620845049
 H          3.9744930904       -0.4267459993        0.2495387514
 H          3.0013060491        0.5252920579        1.3719973504
 H          3.2637940555        1.1010497315       -0.2741687912
 H          1.7113990944       -1.4197223622        0.4857014068
 H          1.9734546177       -0.8441592870       -1.1599399361
 H          0.7376692573        1.2485781630       -0.6252935886
 H          0.4749514032        0.6711937955        1.0215162092
 H         -0.7749550800       -1.2847259427        0.1312529465
 H         -0.5227659884       -0.7037031191       -1.5070286006
 H         -1.6582802805        1.4633699702        0.0470475487
 H         -2.3652994621        0.6423487401       -1.3357580862
 H         -3.8514986502        0.4901924094        0.6326944218
 H         -3.2833604497       -1.1160829502        0.1753479657
 H         -2.5706225144       -0.2891023578        1.5624949604
  20
        -19.98978066
 C          2.7594340771       -0.2330192594        0.5394736112
 C          1.2979485159       -0.5184752261        0.2109907428
 C          0.6515136721        0.6576908609       -0.5188389603
 C         -0.7518250552        0.3865004522       -1.0711478825
 C         -1.8983571519        0.5005011496       -0.0606845641
 C         -2.1035750309       -0.7317892993        0.8136593667
 H          2.8421469324        0.6496567907        1.1698147679
 H          3.3284919700       -0.0565614891       -0.3708237331
 H          3.2047232386       -1.0742133013        1.0654678709
 H          0.7641968349       -0.7268303982        1.1378746479
 H          1.2358748191       -1.4097304895       -0.4174564809
 H          1.2985125531        0.9223081127       -1.3598661443
 H          0.6165407196        1.5228602041        0.1473217328
 H         -0.7743295485       -0.6029084681       -1.5332415537
 H         -0.9384903676        1.1181912048       -1.8613082030
 H         -1.7339754892        1.3743629089        0.5735864959
 H         -2.8218691473        0.6734383540       -0.6194981069
 H         -3.0142458923       -0.6243322734        1.3992034887
 H         -2.1959471322       -1.6234235932        0.1977246072
 H         -1.2770276988       -0.8746159856        1.5025769974
  20
        -19.98964242
 C          2.0801510362        0.9860379679        0.0160960845
 C          1.8959049838       -0.5235471372        0.1168709093
 C          0.4544067080       -0.9455484918        0.4096849144
 C         -0.5308853210       -0.6073727060       -0.7191783895
 C         -1.3877830652        0.6315654109       -0.4460188124
 C         -2.4837448178        0.3673068617        0.5806631040
 H          3.1307096915        1.2277018740       -0.1294243061
 H          1.7405663358        1.4722356395        0.9281888774
 H          1.5199349841        1.3904325121       -0.8227366979
 H          2.5359443920       -0.9041375791        0.9169026956
 H          2.2235339401       -0.9905018785       -0.8151184780
 H          0.1304724986       -0.4702960659        1.3369152554
 H          0.4506588721       -2.0241823842        0.5803567416
 H         -1.2027595027       -1.4527068538       -0.8833067260
 H          0.0284238213       -0.4589426825       -1.6451489441
 H         -0.7551581090        1.4486212530       -0.0972796416
 H         -1.8545825971        0.9498403981       -1.3813819447
 H         -2.0607297059        0.0481562629        1.5300188491
 H         -3.0673695504        1.2685380559        0.7534495747
 H         -3.1539072326       -0.4136738477        0.2276688009
  20
        -19.98944564
 C          1.9479297259       -0.9417350646       -0.5831085702
 C          1.4218795408       -0.2340712265        0.6604828587
 C          0.7540148427        1.1065946205        0.3524526152
 C         -0.5419940614        1.0262385041       -0.4586759382
 C         -1.6959007144        0.3139371167        0.2628293811
 C         -1.8904890069       -1.1325956082       -0.1814857665
 H          2.6435486419       -0.2990184735       -1.1184966886
 H          1.1371541456       -1.2054899752       -1.2569058947
 H          2.4689272111       -1.8552318127       -0.3053860065
 H          2.2596536670       -0.0479854587        1.3375863680
 H          0.7198090065       -0.8829316315        1.1857707346
 H          1.4651360587        1.7294117346       -0.1968145890
 H          0.5386881098        1.6128431344        1.2971525560
 H         -0.3503008650        0.5345727043       -1.4130070561
 H         -0.8438902802        2.0519836654       -0.6827645434
 H         -1.5234461548        0.3436740915        1.3406368396
 H         -2.6256232863        0.8540164906        0.0702504424
 H         -1.0018384092       -1.7280027317        0.0070527594
 H         -2.7228017617       -1.5825954799        0.3556881250
 H         -2.1106791098       -1.1741619781       -1.2463334415
  20
        -19.98863062
 C          2.7300378290        0.2801729756        0.3697257091
 C          1.7874555723       -0.6799918796       -0.3475698316
 C          0.4185502125       -0.0690481166       -0.6506134316
 C         -0.4000455406        0.2333986217        0.6036505981
 C         -1.8229711962        0.6900671873        0.2741930773
 C         -2.7145637342       -0.4423849280       -0.2554946761
 H          2.8436655919        1.1984806115       -0.2023154499
 H          3.7110895756       -0.1738108308        0.4886867429
 H          2.3519784215        0.5328827809        1.3566877679
 H          1.6540337787       -1.5779296041        0.2603759139
 H          2.2474408082       -0.9856217370       -1.2903931421
 H         -0.1383140304       -0.7645837506       -1.2818872155
 H          0.5545673436        0.8537149408       -1.2198607856
 H          0.0948103458        1.0209850753        1.1745857283
 H         -0.4442883104       -0.6575156048        1.2346046108
 H         -2.2685108834        1.1109376952        1.1772978839
 H         -1.7659992758        1.4952827905       -0.4606652523
 H         -3.5491392966       -0.6279001881        0.4155197198
 H         -3.1204934360       -0.2021449088       -1.2343862544
 H         -2.1525261256       -1.3683280951       -0.3454554949
  20
        -19.98712435
 C          1.8101488831        0.3002524402        1.1442661399
 C          1.5111493066       -0.6148323018       -0.0391343438
 C          0.7610862949        0.0861223251       -1.1803574422
 C         -0.7611905167       -0.0861187087       -1.1805863016
 C         -1.5115126959        0.6146464307       -0.0394325102
 C         -1.8097093148       -0.3000904301        1.1444448874
 H          0.8992171435        0.7064972897        1.5731684452
 H          2.4379860189        1.1306696567        0.8275892921
 H          2.3386929933       -0.2487906413        1.9209211183
 H          0.9369765420       -1.4802664828        0.2961477965
 H          2.4632717327       -0.9905151787       -0.4216856570
 H          1.1254428679       -0.3133769872       -2.1301296267
 H          1.0005101084        1.1516262286       -1.1670507684
 H         -1.0006787921       -1.1516063409       -1.1675447604
 H         -1.1252750274        0.3136064098       -2.1303709927
 H         -0.9378863193        1.4805935430        0.2954228733
 H         -2.4639545112        0.9895016229       -0.4219928657
 H         -2.4374191845       -1.1308451608        0.8283235076
 H         -0.8984642121       -0.7059060311        1.5731249495
 H         -2.3380851790        0.2490533246        1.9211335807
