  20
        -19.99422283
 C          3.1830357606        0.2224171828       -0.0007064631
 C          1.8689686592       -0.5498273406       -0.0000211727
 C          0.6601515670        0.3833706143        0.0009255080
 C         -0.6601682457       -0.3833888175        0.0006768030
 C         -1.8689656679        0.5498430869       -0.0001509800
 C         -3.1830225812       -0.2224157522       -0.0005898201
 H          4.0286367123       -0.4609757119       -0.0021218296
 H          3.2529651068        0.8549169723        0.8814480213
 H          3.2511741132        0.8563375160       -0.8819893563
 H          1.8268060730       -1.1939064385        0.8812931673
 H          1.8256794767       -1.1933951827       -0.8816562458
 H          0.7028144351        1.0283407066       -0.8801335283
 H          0.7032494675        1.0272759509        0.8827339776
 H         -0.7033968702       -1.0275854343        0.8822675958
 H         -0.7026833233       -1.0280751751       -0.8805998777
 H         -1.8266967803        1.1939527611        0.8811342732
 H         -1.8257853014        1.1933870487       -0.8818102664
 H         -3.2529252616       -0.8547590515        0.8816789479
 H         -4.0286140205        0.4609797816       -0.0020758168
 H         -3.2512177731       -0.8564815131       -0.8817644333
