! r2scan-3c def2/J RI DEFGRID2 scfconv6 printgap
%output
    printlevel normal
end
%cpcm
    smd true
    smdsolvent "water"
end
* xyz 0 1
C -0.5902916365 0.0756805556 -0.4638200857
C 0.6006735144 -0.0688059983 0.4888748103
O 1.7808819535 0.0333168714 -0.2779436969
O -1.8287226952 0.0153307162 0.200624771
H -0.5172707643 -0.6904335079 -1.2454867023
H -0.5466159139 1.0564835014 -0.9421679087
H 0.5535402558 -1.0444287703 0.9926552478
H 0.5507527349 0.7237550392 1.2462984559
H 2.5490059678 -0.0295809448 0.306374214
H -1.9537306645 -0.8699139197 0.5710827978
*
