! wb97x-v def2-tzvp def2/J RIJCOSX DEFGRID2 scfconv7 GCP(DFT/TZ) printgap
%output
    printlevel normal
end
* xyz 0 1
C -1.5588155343337545e-06 -2.122710193577963 -3.512179897704502e-06
C 1.212355231370318 -1.4394775187330475 -3.7208518204173576e-05
C 1.18693705393252 -0.05055752080763732 -5.158627668672483e-05
C 2.0597897322592024e-06 0.672528369570113 -3.0498471208909672e-05
C -1.186934863882425 -0.050554426496704524 2.5107853916400145e-06
C -1.2123566149554126 -1.4394744032907667 1.5294513893116516e-05
Cl -2.7052591110106583 0.8359150354627418 3.0066885203396623e-05
Cl 2.7052634843287113 0.8359080827016231 -0.00010688469645889304
H -2.959851850830975e-06 -3.2074730561098366 6.513387249180347e-06
H 2.1530072535093687 -1.9771114561490613 -5.549907421351386e-05
H 3.445048836599409e-06 1.7554314798491946 -4.272516643671803e-05
H -2.1530100359787756 -1.9771059300904332 3.966394387008897e-05
*
