! pbe def2-sv(p) def2/J RI DEFGRID1 loosescf d4 GCP(DFT/SV(P)) printgap
%output
    printlevel normal
end
* xyz 0 1
C 3.3932601008 -4.1110302325 -0.2897522544
C 1.9925220887 -3.6162524608 -0.6129684916
O 1.8170668537 -2.2471569328 -0.2021462497
C 2.2168773186 -1.2920589145 -1.0176808106
O 2.7204285483 -1.4723510305 -2.102878975
C 1.9101219182 0.0784801867 -0.4420052745
C 0.7433316789 0.6835753661 -1.226990296
H 1.0463535207 0.8562112717 -2.2635271626
C 0.2739273152 1.9836590756 -0.6012834493
O -0.8618519936 2.1316945718 -0.196022361
O 1.217675498 2.878653442 -0.5618570319
C 0.9480971875 4.1318959967 0.1077990413
C 1.2549186416 4.0128547907 1.591323205
S -0.6873181876 -0.434012226 -1.3369603338
P -1.5215166178 -0.2398405407 0.6300796353
S -0.5008442917 0.3924236823 2.1769095172
O -3.0075155313 0.3177718489 0.450436012
C -3.4641332579 1.6585996632 0.6245315644
O -1.8651139773 -1.7687979344 0.9167743298
C -2.6875392047 -2.5713421642 0.0555418167
H 4.1282811739 -3.5545580212 -0.8666023714
H 3.6004322345 -3.9814804716 0.7690970545
H 3.4681906312 -5.1631499796 -0.5437634514
H 1.2365063828 -4.1650995818 -0.0510880797
H 1.7950575855 -3.6822470148 -1.6868496098
H 2.7789693 0.7273296229 -0.555397607
H 1.6523226972 -0.027199792 0.6131884733
H 1.6075860601 4.847331013 -0.3827926432
H -0.0992662375 4.3973969316 -0.0552273045
H 0.6399118476 3.2365821615 2.0443219172
H 2.2997475382 3.7573313229 1.7415853612
H 1.0439331963 4.9588150809 2.0784066573
H -2.9013428626 2.1499376107 1.4179145769
H -4.5142319249 1.5738273133 0.8958096031
H -3.3452912841 2.2118790288 -0.3048800673
H -2.2715001018 -2.584813996 -0.9524602672
H -3.7013735812 -2.1758566078 0.0345121449
H -2.6704960922 -3.5669222466 0.4917338201
*
