! r2scan-3c def2/J RI DEFGRID2 scfconv6 printgap
%output
    printlevel normal
end
%cpcm
    smd true
    smdsolvent "water"
end
* xyz 0 1
C 2.738752188 -2.5819111465 -2.318921569
C 3.1844833523 -2.3747307375 -0.8857395423
O 3.4246978835 -0.9732265458 -0.6023980354
P 2.3512583008 0.0329958608 -0.0267516806
S 3.1626056012 1.691662573 0.605278897
O 1.5592938104 -0.8269909427 1.060854875
C 1.3662329064 -0.4201078278 2.426705681
C 2.4486073746 -1.0120958495 3.3065876761
S 0.9451620606 0.2457569585 -1.6111788264
C 0.208502361 1.8006420524 -1.0533004433
S -0.6407338222 1.663013228 0.5434007538
P -2.060237667 0.2159408093 -0.0647942082
S -2.7789083078 0.3729618415 -1.884818089
O -3.1435196908 0.2243198772 1.0967661014
C -4.3082959838 1.0670645862 1.0637179335
C -3.9576375895 2.5326720876 1.220769732
O -1.2588978669 -1.1069118342 0.2763221553
C -1.5077317632 -2.3549618817 -0.4001588342
C -2.849614394 -2.9406026351 -0.0143280092
H 3.4598698933 -2.140350581 -3.0011880769
H 2.6640838831 -3.6467858578 -2.5161545325
H 1.7694047763 -2.1187220388 -2.4928146239
H 4.1516638766 -2.8454416072 -0.7013994851
H 2.4450517276 -2.7550244782 -0.1783185531
H 1.3787073879 0.6728661989 2.4828738167
H 0.3729145377 -0.7877833371 2.6913608665
H 2.4551094999 -2.095511629 3.2251125806
H 3.4200879927 -0.6271368578 3.0005472786
H 2.2648930293 -0.7291693129 4.3380361516
H -0.5033790362 2.0952894564 -1.823554612
H 0.9899319125 2.5488682282 -0.9230379338
H -4.8310493456 0.8969531841 0.1169960331
H -4.9160207238 0.7067465481 1.8947872124
H -4.8701384063 3.1132529155 1.311066007
H -3.3441409993 2.6825220251 2.1057137513
H -3.4037877104 2.8796442624 0.34931996
H -1.4543799511 -2.1810573652 -1.4799196052
H -0.6794978755 -2.9924936712 -0.0873544863
H -2.9622327266 -3.917905303 -0.4729915295
H -2.9233944385 -3.034615541 1.0658943559
H -3.6494704541 -2.289968809 -0.3663307368
*
