! pbe def2-sv(p) def2/J RI DEFGRID1 loosescf d4 GCP(DFT/SV(P)) printgap
%output
    printlevel normal
end
* xyz 0 1
C 4.8732306701 2.3970061058 -0.4556444623
C 3.4284179622 1.9402756266 -0.451036299
O 3.3713157797 0.6539009175 0.1959057319
P 2.0088825698 0.0872852717 0.7826012181
S 1.0433171921 1.3508467662 1.927700601
O 2.4546283683 -1.2130438768 1.5509939511
C 3.6704933915 -1.967847929 1.3021388551
C 3.6693780718 -2.6635924307 -0.042709243
S 0.9976191088 -0.5772583387 -0.9901985572
C -0.0558577675 -1.8502369717 -0.2528336068
S -1.2664854863 -1.2175083882 0.948752208
P -2.3084840318 0.0251834181 -0.3887846196
S -2.5190654004 -0.5940602144 -2.2395643371
O -1.5144097988 1.3747867908 -0.1650142268
C -1.7069340835 2.5351671774 -1.0054764381
C -0.5667667188 2.6563564636 -1.9967667557
O -3.6870357664 0.3531517037 0.3359509502
C -4.8687623392 -0.4430207932 0.1358133108
C -4.7364106919 -1.8201878829 0.7530620514
H 5.2359485162 2.4980542787 0.5633586912
H 5.4903074579 1.6747543383 -0.9817743859
H 4.9397636018 3.3577604738 -0.9553078382
H 3.0424778952 1.8247642915 -1.4677595677
H 2.7892188624 2.6367963142 0.1026783567
H 4.5158802929 -1.2837302138 1.3839794218
H 3.6877521609 -2.6823712502 2.1265537146
H 4.5910384261 -3.2288671948 -0.1421559248
H 2.8282935758 -3.3468639919 -0.1273152464
H 3.6149001246 -1.9345468824 -0.8478102276
H 0.5491901957 -2.5738152686 0.2875643055
H -0.5814356376 -2.3131236883 -1.0880391386
H -2.6698070967 2.453799324 -1.5180251229
H -1.727220582 3.3783816605 -0.3129232807
H -0.5583446462 1.799480581 -2.6675816964
H -0.6894732379 3.5655403916 -2.5760601958
H 0.3797761287 2.692310925 -1.462660573
H -5.6599724879 0.1392898177 0.6097531265
H -5.0537405995 -0.5200593785 -0.940650489
H -5.6866811574 -2.3392854735 0.6809079055
H -3.9777710449 -2.3937904447 0.2218816884
H -4.4456666151 -1.7392504919 1.7976527388
*
