! wb97x-v def2-tzvp def2/J RIJCOSX DEFGRID2 scfconv7 GCP(DFT/TZ) printgap
%output
    printlevel normal
end
* xyz 0 1
C 0.6472579401445206 1.6886903941191953 -0.03254527046938077
C 1.3977880477622298 0.3853562658404498 -0.26198089090229293
H 1.6055675417252888 0.2643699638548067 -1.3365356396209565
C 0.5418514989093116 -0.7799831570229849 0.20697982736834356
H 0.4019196571570549 -0.7110414882058771 1.2947802157162076
C -0.8139528215912819 -0.7262110570664414 -0.49620577079525907
H -0.6510547631380282 -0.8327683734061861 -1.5778492468421192
C -1.4877403828012223 0.6278834194770299 -0.279533928042997
H -2.375972406444549 0.7213634807920537 -0.9148623129695052
O -0.6196771232983109 1.6712469011338436 -0.714379479070025
O -1.8333931762972961 0.749336489501246 1.0850060262134353
O -1.698952027334925 -1.74797436371826 -0.028827888254400767
O 1.2394932137613988 -1.9924425466857392 -0.11973295736350838
O 2.623418056223187 0.4731324766557041 0.47231112973336953
H 1.203266516540179 2.531205172185495 -0.4496436749620374
H 0.5066413783462645 1.854257614429429 1.043790523122695
H -2.4478203588322875 1.4914205465778834 1.166699763677899
H -1.3733911210430787 -2.589940504421852 -0.37363008401418046
H 0.8849659871687109 -2.6966185625841166 0.4381062125599404
H 3.0739023068377915 -0.3768097898365753 0.37329648730040943
*
