! pbe def2-sv(p) def2/J RI DEFGRID1 loosescf d4 GCP(DFT/SV(P)) printgap
%output
    printlevel normal
end
* xyz 0 1
C 1.4619079479 0.9547659438 3.2759915308
C 1.413609206 1.4386335172 1.8390058262
O 2.3457654452 0.711716966 1.0192648942
P 2.0231646087 -0.6336504032 0.2347433302
S 1.0987433061 -2.0638382365 1.2135387107
O 3.465895861 -1.0212954052 -0.2894471944
C 4.3601138143 -1.8690455015 0.4585759586
C 4.8377671082 -1.2069375526 1.7338035644
S 1.2007104967 -0.0080654543 -1.610269186
C -0.1173913985 -1.2516638082 -1.8059426642
S -1.7496048494 -0.5501925623 -2.1860740114
P -2.1164879687 0.6352452487 -0.4586596711
S -3.9796881791 1.1945461527 -0.2495128695
O -1.0248681077 1.7921143179 -0.5222019562
C -1.0535584347 2.7719494944 -1.5790063489
C -1.7535042472 4.036019989 -1.1208677572
O -1.4727478906 -0.1344219019 0.7707990407
C -2.2901145042 -0.9389543902 1.641614905
C -2.7005322076 -2.2423040167 0.9873531263
H 1.1633232556 -0.0899076434 3.3332225237
H 2.4684692097 1.056217713 3.6730664869
H 0.7788557283 1.5483817123 3.875148522
H 1.7387191115 2.4779573931 1.7608029186
H 0.4067917817 1.3430417175 1.4269474803
H 3.8419010231 -2.8074537048 0.6808947063
H 5.1816694706 -2.05452161 -0.2344326296
H 5.5903985238 -1.8319541922 2.2042960929
H 5.2621390347 -0.2308951779 1.513332723
H 4.0023112153 -1.0811032772 2.4210368369
H -0.1720878687 -1.8431647943 -0.8887425975
H 0.1174453576 -1.8764268529 -2.6639110764
H -0.0035342439 2.9553974162 -1.8182161879
H -1.5518110448 2.3439807603 -2.4559053141
H -1.7182099309 4.7719855756 -1.9175198551
H -2.7925420793 3.8223462706 -0.8793105889
H -1.2644163745 4.4359871324 -0.2373346585
H -1.6579135183 -1.1142752108 2.5131311876
H -3.1708677814 -0.3543684397 1.9246761019
H -3.3137150781 -2.8099811504 1.6796640628
H -3.2788363835 -2.0402523882 0.0858812164
H -1.8223787758 -2.8302760048 0.7306283707
*
