! pbe def2-sv(p) def2/J RI DEFGRID1 loosescf d4 GCP(DFT/SV(P)) printgap
%output
    printlevel normal
end
* xyz 0 1
C 4.0721402443 -2.5693200752 -1.4576142358
C 4.2876734711 -1.1065286753 -1.1242697216
O 3.1929140449 -0.3104248485 -1.6502758042
P 2.1096949416 0.3909954914 -0.7449510894
S 0.8271801908 1.3181558843 -1.8966040177
O 3.0341747148 1.2720894937 0.1961857587
C 2.5975920012 2.1850402469 1.2201379272
C 2.6300061507 1.5234377057 2.5832061515
S 1.3358015206 -1.1491867841 0.502202354
C -0.0279865402 -1.6727072909 -0.58690621
S -1.6150155444 -1.8133023206 0.2666125231
P -2.1124474222 0.2503426435 0.4711052866
S -0.8510518729 1.4159681906 1.4058024192
O -3.5816475893 0.1651953754 1.0710861081
C -3.9771391854 -0.6505070516 2.1911567323
C -3.1006178209 -0.444111105 3.4080473612
O -2.3820736226 0.8416767596 -0.9626774189
C -3.3708935563 0.3658624555 -1.9078901694
C -2.7439835242 -0.5599482775 -2.9324892631
H 4.9573381272 -3.1299249138 -1.174774804
H 3.2161134711 -2.9617232635 -0.9145931072
H 3.9000848052 -2.6845960888 -2.5240491017
H 5.179348732 -0.7127530123 -1.6140115126
H 4.3616202522 -0.948787255 -0.0465133556
H 3.3063609964 3.013427715 1.1628002321
H 1.593261001 2.5477701411 0.9848721659
H 2.4005719569 2.267952308 3.3382197388
H 1.8831752759 0.7349417803 2.6388811704
H 3.6134864516 1.1032164981 2.7734213407
H 0.1877496018 -2.6689794124 -0.9639436596
H -0.1095024208 -0.9434265182 -1.3975793429
H -5.0057766627 -0.33928196 2.3820168211
H -3.9564217028 -1.6963198439 1.8724254117
H -3.0748443519 0.6076541866 3.6836963861
H -3.4922005568 -1.0251464832 4.2366898495
H -2.0821602326 -0.7679419528 3.1968832747
H -4.1806251046 -0.1224035141 -1.3624417547
H -3.7399281129 1.2782916919 -2.3790216496
H -3.4539284608 -0.7297257217 -3.7356760028
H -1.8480514045 -0.0978004391 -3.3424274351
H -2.4820134888 -1.516066689 -2.4859206721
*
