! wb97x-v def2-tzvp def2/J RIJCOSX DEFGRID2 scfconv7 GCP(DFT/TZ) printgap
%output
    printlevel normal
end
%cpcm
    smd true
    smdsolvent "water"
end
* xyz 0 1
C 2.4332387562776665 1.0895144069903406 -9.262585107542676e-05
C 1.1592487506649585 0.29785270469655206 0.00020261906970632333
C 1.1963379643133223 -1.0972566035645166 0.0002225119878300501
C 6.905736235634865e-06 -1.8016121539888068 4.192571665950019e-06
C -1.1963259728412066 -1.097259899447833 -0.0001448793439121609
C -1.1592408569175212 0.297849649446724 -5.607382262566107e-05
N 2.900162630006623e-06 0.9818224142002504 8.666089517089371e-05
C -2.433233516587568 1.0895070721337745 3.027179945778689e-06
H 3.036193897368104 0.8511326317143906 -0.8829318396130121
H 2.227596062156755 2.161087534165578 0.004478592844732765
H 3.0411529041133645 0.8442491431759557 0.8773928830424276
H 2.1505470063536687 -1.614598510434104 0.0003673727156901143
H 8.20627599475185e-06 -2.8873590320409557 -1.8503858955502566e-05
H -2.1505333295295292 -1.6146048988767079 -0.0002610834281980775
H -3.0391497797047453 0.8470310232387963 -0.8796569426813308
H -3.0381933304286934 0.84832113856546 0.8806861256496716
H -2.2275884570758087 2.1610888382625144 -0.0008505307901009217
*
