  10
        -14.02098129
 C         -0.9783797877        0.7042457544        0.0000197035
 C         -0.9777153642       -0.7051065380       -0.0001197474
 C          0.3306507984       -1.1065248400        0.0000908499
 N          1.1156146505        0.0004740900       -0.0000887795
 C          0.3296949700        1.1068364162        0.0000348363
 H         -1.8422524640        1.3401948578        0.0001400303
 H         -1.8408330064       -1.3417723844        0.0001886171
 H          0.7503456901       -2.0926536037        0.0004341704
 H          2.1215304064        0.0008969653       -0.0000933976
 H          0.7485274458        2.0932904584        0.0002587344
