! pbe def2-sv(p) def2/J RI DEFGRID1 loosescf d4 GCP(DFT/SV(P)) printgap
%output
    printlevel normal
end
* xyz 0 1
C 4.2047970583 0.0859400477 -2.2120863728
C 4.4692193031 0.1288474277 -0.7201189936
O 3.3419943985 0.6779819365 0.0131908766
P 2.1927762269 -0.1629091198 0.6957360008
S 1.3478058865 0.8327729745 2.1525490458
O 2.9440660641 -1.4884178705 1.1553648384
C 2.4024050957 -2.3518151511 2.1697366582
C 1.1421226937 -3.0498420746 1.7018630475
S 0.9847511444 -0.8818358874 -0.920317863
C 0.5908268443 0.6940189331 -1.7171996689
S -0.4705135172 1.7831203241 -0.7201679532
P -2.0370462175 0.3980183735 -0.4088901901
S -2.4723690323 -0.7410977349 -1.9486516501
O -3.2551765884 1.2617023705 0.1332379916
C -4.2411956893 1.8247813471 -0.750586405
C -3.6843603006 2.9788150574 -1.558193326
O -1.5223615798 -0.3029248122 0.9164974737
C -2.3747744408 -0.9081221344 1.912355887
C -3.0529465286 -2.1584073022 1.3912901006
H 3.4002760706 -0.6080254004 -2.4433974985
H 3.9434211688 1.0751036677 -2.5793468174
H 5.1082362387 -0.2460950959 -2.7143884042
H 5.2861608699 0.8127516639 -0.4837513823
H 4.6928456361 -0.8639356504 -0.3284688341
H 3.2076408723 -3.0601138615 2.3691616338
H 2.2019047676 -1.7507822747 3.0625368394
H 0.3572585614 -2.3132177345 1.5323904194
H 1.3248384617 -3.5820327189 0.7714079654
H 0.8122379378 -3.7503885036 2.4622730658
H 0.0743360031 0.4328737286 -2.6405372802
H 1.4998202378 1.2574040115 -1.9150057846
H -4.6037974238 1.0316682945 -1.4127651768
H -5.0397813525 2.1476929052 -0.0813935182
H -3.2256021356 3.7134849519 -0.9010351832
H -2.9310416656 2.6149793851 -2.2555088315
H -4.4878852669 3.4458603713 -2.1184471741
H -1.6883114421 -1.1266019587 2.733076335
H -3.106728922 -0.1657349706 2.2373346315
H -3.6150190306 -2.6236473059 2.1947422546
H -3.7333400222 -1.9044968753 0.5794869777
H -2.3141645498 -2.8611458621 1.0127794857
*
