  22
  -38.8739579300000       0.444926874859194      !md2
 C         -3.9058710372        1.5141307419       -0.0691472829
 C         -3.5275136232        0.5554094735       -0.9944461323
 C         -2.2442768798        0.0393302046       -0.9773011177
 C         -1.3231951214        0.4826598515       -0.0333688825
 C         -1.7056143835        1.4563983964        0.8846658490
 C         -2.9920138506        1.9640695086        0.8694879905
 C          0.0521288200       -0.0482600780       -0.0091460338
 C          1.1265739508        0.8355010902       -0.0727421301
 C          2.4246227484        0.3597597759       -0.0590543457
 C          2.6907503711       -0.9972981364        0.0240358526
 C          1.6316055464       -1.8836236714        0.1022672491
 C          0.3295387281       -1.4114216887        0.0854652293
 Cl        -0.9682212330       -2.5581277972        0.2394499923
 Cl         3.7432353179        1.4866609026       -0.1480765369
 H         -4.9095829575        1.9108989513       -0.0812982496
 H         -4.2340284992        0.2076911479       -1.7330344816
 H         -1.9477872017       -0.6978189854       -1.7082668941
 H         -0.9938114792        1.7988854702        1.6207305438
 H         -3.2821270269        2.7122970069        1.5913934854
 H          0.9350338426        1.8940980082       -0.1464169011
 H          3.7062898547       -1.3561066796        0.0330288745
 H          1.8148896791       -2.9424947888        0.1804704884
  22
  -38.8739575600000       0.444752705806963      !md2
 C         -3.9101868350        1.4961198690       -0.1598203811
 C         -3.0914901690        1.5444876560       -1.2760831233
 C         -1.8028401400        1.0460559585       -1.2139251298
 C         -1.3233025930        0.4822981126       -0.0352691744
 C         -2.1488481767        0.4422212425        1.0840538858
 C         -3.4343139414        0.9489136395        1.0202584841
 C          0.0534724248       -0.0424588905        0.0203888570
 C          1.1141161502        0.7819098256       -0.3469507128
 C          2.4139467240        0.3138725857       -0.2937229149
 C          2.6949763195       -0.9791077976        0.1167808165
 C          1.6482539026       -1.8117632160        0.4697946573
 C          0.3447344176       -1.3457777651        0.4211153192
 Cl        -0.9417268896       -2.4439868078        0.8229627260
 Cl         3.7162367122        1.3694730835       -0.7485993320
 H         -4.9155919669        1.8857525657       -0.2083396702
 H         -3.4576782065        1.9718657272       -2.1972441518
 H         -1.1653847647        1.0748534581       -2.0849365792
 H         -1.7755625012        0.0286061727        2.0088695965
 H         -4.0660007567        0.9166927669        1.8951356405
 H          0.9117298444        1.7936440453       -0.6601678422
 H          3.7118871850       -1.3319666174        0.1555423837
 H          1.8419693140       -2.8253733672        0.7798743898
  22
  -38.8726401000000       0.110320419333844      !md4
 C         -3.9190573187        1.4584563247        0.0234160242
 C         -3.3009623219        1.1104215865        1.2128368609
 C         -2.0019845927        0.6333429620        1.2070041162
 C         -1.3136743517        0.4998774446        0.0075318872
 C         -1.9369871618        0.8494433431       -1.1839910110
 C         -3.2353719758        1.3279337456       -1.1738999369
 C          0.0726986458       -0.0209587009       -0.0009696408
 C          1.1504161440        0.8423015842        0.1528867834
 C          2.4412740729        0.3432612984        0.1436142181
 C          2.6875551024       -1.0108030832       -0.0149291818
 C          1.6193713072       -1.8770793710       -0.1677346632
 C          0.3269872859       -1.3800618618       -0.1608275262
 Cl        -1.0110730332       -2.4730382161       -0.3524273843
 Cl         3.7754693265        1.4382264384        0.3355539070
 H         -4.9325728709        1.8297149369        0.0293627095
 H         -3.8315038160        1.2090084342        2.1477574878
 H         -1.5162872114        0.3573979103        2.1311805078
 H         -1.4004920577        0.7425417732       -2.1150783351
 H         -3.7142203388        1.5980274032       -2.1028458534
 H          0.9714027209        1.8981999860        0.2776041301
 H          3.6980268883       -1.3841142763       -0.0185019536
 H          1.7884379085       -2.9339578352       -0.2914710407
