! pbe def2-sv(p) def2/J RI DEFGRID1 loosescf d4 GCP(DFT/SV(P)) printgap
%output
    printlevel normal
end
* xyz 0 1
C 3.7705813302 -1.1206922381 -2.0442674459
C 2.7215006985 -0.0481560988 -2.2483711436
O 2.4558576132 0.7134593568 -1.0469543846
P 1.9803115771 0.129263325 0.3466935717
S 1.1205916694 1.5157267203 1.4309762904
O 3.2898057823 -0.4569332495 1.0619721602
C 4.3107703576 0.431695203 1.5534654952
C 5.3762617085 -0.414709073 2.2189087284
S 1.0027445033 -1.706545343 0.0568623372
C -0.3305155271 -1.5172423531 1.2846692124
S -1.98994423 -1.570915997 0.5632333304
P -2.0438780793 0.3220089886 -0.4094487904
S -0.6866600697 0.7282257788 -1.7597980513
O -2.0414782254 1.3842230948 0.7520671574
C -2.9389669238 1.3795001014 1.8890775062
C -4.1668543776 2.2228540867 1.615373672
O -3.5351599824 0.371538493 -0.9546038734
C -3.9073330877 -0.146644305 -2.2454598862
C -3.7268724598 -1.6476006915 -2.3368308052
H 4.6973585225 -0.6815876313 -1.6827552547
H 3.4222949111 -1.8601111019 -1.3244119981
H 3.9553914423 -1.6139898782 -2.9933722963
H 1.77451722 -0.4733278511 -2.5915917819
H 3.0502872218 0.714947657 -2.9557198557
H 4.7143728805 1.0040296699 0.7118684949
H 3.8492894339 1.1307600574 2.2592731083
H 6.1573014604 0.2329507529 2.6034688191
H 4.9400208994 -0.9796558678 3.0373051639
H 5.8022481534 -1.1092734368 1.5008239792
H -0.1829052593 -0.5687160372 1.8092838595
H -0.2786649239 -2.3625991035 1.965526633
H -3.2141900246 0.3464031254 2.1200012662
H -2.3375970583 1.7967627514 2.6997393264
H -4.7714570626 2.2672865069 2.5158368019
H -3.8707941737 3.229251032 1.331794963
H -4.7516280593 1.7877115247 0.8094927485
H -4.9543814135 0.1417858501 -2.3477206823
H -3.3046431904 0.3606901098 -3.0049211261
H -4.2322588297 -2.1416829184 -1.5107907688
H -4.1388363289 -2.0006506871 -3.2767283457
H -2.6673140443 -1.8971302499 -2.3010900774
*
