! r2scan-3c def2/J RI DEFGRID2 scfconv6 printgap
%output
    printlevel normal
end
%cpcm
    smd true
    smdsolvent "water"
end
* xyz 0 1
C 0.2768568053 -1.3878865441 3.0168647652
C 1.4258099889 -0.5504287572 2.4952352637
O 1.9194213008 -1.1698299624 1.2799522435
P 2.6054593061 -0.3479436998 0.1236015201
S 3.3357839094 -1.503514039 -1.2722590757
O 3.6533844575 0.5331936645 0.9316144367
C 4.7817174183 1.1749140598 0.3071032671
C 4.3651061162 2.2367361981 -0.689357466
S 1.1377787151 1.0711646138 -0.5134100211
C 0.3683866456 -0.0007256673 -1.7477090125
S -0.5923260202 -1.3452600453 -0.9992094582
P -2.2281525601 -0.1391412106 -0.4150668116
S -2.7689950426 1.2359209281 -1.7089052499
O -1.8887157555 0.4305946176 1.0343033979
C -1.7837861841 1.8313687557 1.3514647816
C -3.1002279906 2.3456181515 1.8990726235
O -3.1951819931 -1.3543104778 -0.1067659124
C -4.4264835106 -1.2158774758 0.6364775325
C -5.5470423186 -0.6701103953 -0.2263780661
H -0.5413103381 -1.3955254422 2.3004304119
H 0.6070385484 -2.410481569 3.1752998125
H -0.0721454517 -0.9706943544 3.9560095056
H 2.2557496939 -0.5179671117 3.2034891448
H 1.1103895025 0.4713129726 2.2628701615
H 5.3307615771 1.6027452144 1.1470614454
H 5.386306666 0.4052625022 -0.1817109885
H 3.8819546306 1.7727135178 -1.5479730187
H 3.6710440464 2.9370583964 -0.2315705693
H 5.2457522617 2.7713882726 -1.0305126382
H 1.1466068957 -0.4659426588 -2.3532238115
H -0.2884415257 0.6252833516 -2.3535123988
H -0.9872516154 1.8953280212 2.0937154427
H -1.4945188443 2.3850709735 0.4536806066
H -2.9831277125 3.3846724753 2.1890226949
H -3.8710351751 2.2794362835 1.1335045177
H -3.4041994369 1.7640716846 2.7651689614
H -4.6426178807 -2.2322674129 0.9704972261
H -4.2458770592 -0.5738998475 1.5023886797
H -5.6886665878 -1.301406823 -1.0997147315
H -6.4655854078 -0.6454547561 0.3514304338
H -5.3123856971 0.3369513395 -0.5657151037
*
