! pbe def2-sv(p) def2/J RI DEFGRID1 loosescf d4 GCP(DFT/SV(P)) printgap
%output
    printlevel normal
end
* xyz 0 1
C 5.1047805937 -3.0299934359 -0.7948945268
C 4.4507779015 -2.0322522685 0.1482516603
O 3.0197958744 -2.0248181747 -0.0141918894
C 2.5031738718 -1.2689915146 -0.959301569
O 3.1425891956 -0.5853477169 -1.7301874608
C 0.9888393544 -1.3813194128 -0.9957091182
C 0.4107604171 0.0122519611 -1.2059138833
H 0.840705169 0.4390063616 -2.120720671
C 0.8156246685 0.9348364018 -0.0716745329
O 1.8417849787 0.7789238593 0.5486356279
O -0.0324589596 1.9304345407 0.0970110853
C 0.2818544335 2.9279361253 1.0900350188
C 1.1315368993 4.0331897947 0.4877332395
S -1.3815704421 0.0077682342 -1.4949790794
P -2.1261416493 0.0566253075 0.497855898
S -0.9626766169 -0.6024508441 1.931556107
O -2.6894790074 1.5027727728 0.7873369367
C -3.6170298041 2.1561951213 -0.1046520108
O -3.4958963143 -0.7542104931 0.3388268913
C -3.5045077143 -2.1683853996 0.1118285518
H 4.9460722589 -2.726489536 -1.8270217747
H 6.1708788954 -3.0629796606 -0.5964790749
H 4.6801347926 -4.018671715 -0.6446431004
H 4.822579164 -1.0196924351 -0.0331723792
H 4.6020322047 -2.3086169174 1.1918170452
H 0.6467252943 -1.8201280982 -0.0575455715
H 0.7059795626 -2.0241871143 -1.8305259336
H -0.6891469918 3.2958303253 1.4227738276
H 0.7993254162 2.4345099065 1.9179660034
H 0.6244148372 4.4728941444 -0.3665741293
H 1.3024747936 4.7979915172 1.2378952785
H 2.0906910696 3.6330819207 0.1659365383
H -4.5469535303 1.5932867899 -0.1485892848
H -3.1792518269 2.2367824661 -1.0993968911
H -3.7807772743 3.1402148343 0.3265641574
H -3.1833171838 -2.3811336381 -0.9074431731
H -4.5341469142 -2.4822019084 0.2631383284
H -2.8463391365 -2.6671714025 0.8248342883
*
