  26
        -33.45626342
 C         -2.2171211471       -1.6350784813       -0.0265015501
 C         -2.1503106988       -0.1214436323       -0.2131608079
 C         -3.5304868054        0.5104462247       -0.0572812345
 C         -1.1845703850        0.5007751059        0.8005324562
 O          0.1496117336        0.0090685921        0.6317660875
 C          0.9256072424        0.5957741796       -0.2659106812
 O          0.5771588527        1.5450822210       -0.9399489886
 C          2.3004896976       -0.0353578755       -0.3357434322
 C          3.0260637465        0.1943975016        0.9922842131
 C          2.1813096772       -1.5277369326       -0.6461913349
 H         -1.2243061759       -2.0722799852       -0.0993574568
 H         -2.8485993300       -2.0807405261       -0.7902554249
 H         -2.6307094011       -1.8744530856        0.9501825200
 H         -1.7657576525        0.1013336942       -1.2154026416
 H         -3.4825792826        1.5835349851       -0.2238325292
 H         -3.9175161076        0.3302398318        0.9425207332
 H         -4.2194909260        0.0801314020       -0.7783844178
 H         -1.1738456190        1.5898410331        0.6909857282
 H         -1.4593016175        0.2251524665        1.8196504228
 H          2.8386880492        0.4714782811       -1.1421059538
 H          4.0241701552       -0.2310636075        0.9410921004
 H          2.4794403803       -0.2808701714        1.8023999253
 H          3.1106319972        1.2581554598        1.2022121308
 H          3.1728908435       -1.9627726801       -0.7323044822
 H          1.6505873271       -1.6833201464       -1.5826209903
 H          1.6432069906       -2.0324928936        0.1516045633
