! pbe def2-sv(p) def2/J RI DEFGRID1 loosescf d4 GCP(DFT/SV(P)) printgap
%output
    printlevel normal
end
* xyz 0 1
C 3.0160616365 1.7027107473 -1.5478483506
C 1.8050674581 1.8702793594 -0.6574114814
O 1.963482958 1.2493108057 0.6393269641
P 2.3066793505 -0.2606090516 0.9434241844
S 1.9602578541 -0.7031710923 2.8162871762
O 3.8300853646 -0.3722499553 0.5063730726
C 4.6966414145 -1.4143098713 0.9874951334
C 4.2929555776 -2.7817990181 0.4750221783
S 1.2543537189 -1.4133363949 -0.5126012861
C -0.2474495039 -1.650571191 0.4738163094
S -1.0628208497 -0.1001211437 0.9443935069
P -2.1725823949 0.1838797901 -0.8681627174
S -1.1726723513 0.1738055035 -2.5460794927
O -2.9592389515 1.525013275 -0.5494436164
C -2.2905177823 2.8029716557 -0.5868377778
C -3.3531661101 3.8825941908 -0.6105986022
O -3.2864875503 -0.9269801376 -0.8446398349
C -4.2697634468 -1.063880234 0.2136240428
C -5.5458916209 -0.3297778818 -0.1415820339
H 3.9108258809 2.0495862444 -1.0378370796
H 3.1428481252 0.6558016678 -1.8161732246
H 2.8662237702 2.2802123455 -2.4549281519
H 0.9162530464 1.4503746464 -1.1403578518
H 1.6268686568 2.9178958496 -0.4095484844
H 5.6817227769 -1.1214516418 0.6217004758
H 4.6840434463 -1.3956438204 2.0818120054
H 5.0483330002 -3.507670921 0.7582878533
H 3.3402266351 -3.076259625 0.9125193052
H 4.1930765421 -2.767891565 -0.607477798
H 0.0140114703 -2.1448711872 1.4089417672
H -0.9221551738 -2.2578355668 -0.1261330264
H -1.6573097064 2.882837374 0.3014326239
H -1.6612238147 2.8389402198 -1.482303892
H -2.8714880744 4.8544682664 -0.6341887617
H -3.977786109 3.7710654683 -1.4923280582
H -3.976107527 3.8127875017 0.276417892
H -4.4380853104 -2.1397099784 0.2884909336
H -3.841136849 -0.6881402297 1.1466694352
H -5.3594062326 0.7381254946 -0.2134293929
H -5.9257697308 -0.6846627492 -1.0956966338
H -6.2867291287 -0.5137252696 0.6303147713
*
