! pbe def2-sv(p) def2/J RI DEFGRID1 loosescf d4 GCP(DFT/SV(P)) printgap
%output
    printlevel normal
end
* xyz 0 1
C 1.9592264623 -0.5502607268 -3.4822307812
C 2.2940310412 -1.2014827897 -2.1578728234
O 2.6864471811 -0.1565173854 -1.2305164749
P 2.6844459685 -0.3800487448 0.3300317802
S 3.4808906127 1.1256107657 1.2885710539
O 3.4267306864 -1.7798832723 0.4632488012
C 4.0039254149 -2.2401701807 1.7004647104
C 2.9576169728 -2.4909005151 2.7664608704
S 0.6631101095 -0.8108753549 0.8248400942
C 0.1877920205 0.9273334612 1.1218135507
S -1.5569032674 1.0506716992 1.5187020368
P -2.3311261253 0.8970914377 -0.4814115177
S -1.0295770714 1.1407404744 -1.9195473572
O -3.4446146111 2.0021669691 -0.563614759
C -4.5300606516 2.1186862111 0.3922051743
C -5.781065237 1.4428927334 -0.1299823105
O -3.1913971118 -0.4408936045 -0.4620109419
C -2.66564064 -1.7572638873 -0.2130715406
C -2.0037395931 -2.3406583302 -1.4451767037
H 1.6961699533 -1.3197609636 -4.2004841749
H 1.1196443149 0.1315851625 -3.3640849588
H 2.8140071223 0.0109922571 -3.8479294139
H 3.1321501025 -1.8949100148 -2.2474359265
H 1.4310207505 -1.7294708882 -1.741054108
H 4.5196149175 -3.1585631095 1.4165227988
H 4.7287860819 -1.4940604861 2.0394999057
H 2.5105807429 -1.5482812067 3.0787987423
H 2.1756095942 -3.1426834739 2.3851594677
H 3.4287795888 -2.9559833639 3.6263891885
H 0.3986101241 1.5049645036 0.2187554127
H 0.7483318883 1.310239945 1.9727665664
H -4.2095521578 1.6889390048 1.3451454059
H -4.6763020149 3.1942951812 0.5051187226
H -6.0566811994 1.8650696013 -1.0924711427
H -5.6128243966 0.3766005745 -0.2512639177
H -6.5900816267 1.6016527949 0.5761201657
H -1.9595513437 -1.7102813236 0.6224829657
H -3.5415223944 -2.3392080415 0.0794694443
H -2.704976213 -2.3632985024 -2.2748425473
H -1.1474688302 -1.7353146704 -1.7338289838
H -1.6679742869 -3.3489153467 -1.2265780228
*
