! r2scan-3c def2/J RI DEFGRID2 scfconv6 printgap
%output
    printlevel normal
end
%cpcm
    smd true
    smdsolvent "water"
end
* xyz 0 1
C -3.5499417696 -6.34603e-05 1.645e-07
C -2.8569233553 -1.1989620265 -7.0683e-05
C -1.4716929892 -1.2058453664 5.41763e-05
C -0.7970277143 1.55624e-05 1.52505e-05
C -1.4717253101 1.2058827148 2.77186e-05
C -2.8570417677 1.1989503 -2.54533e-05
I 1.3361722749 2.0363e-06 -2.7585e-06
H -4.6284739881 -0.0001430545 -6.9608e-06
H -3.389660958 -2.1368018983 8.65589e-05
H -0.9304360826 -2.1389845953 0.0001456731
H -0.9304433557 2.1390430837 -0.0001861045
H -3.3900082309 2.1368955239 0.0002941631
*
