! pbe def2-sv(p) def2/J RI DEFGRID1 loosescf d4 GCP(DFT/SV(P)) printgap
%output
    printlevel normal
end
* xyz 0 1
C -2.5892854422 0.5615122182 0.0105882272
C -1.2158302297 -0.0487651827 -0.0004836248
C -1.1352398254 -1.4363364446 -0.0020805402
C 0.0875959728 -2.0777944634 -0.0055699423
C 1.2462038547 -1.3296319964 -0.0021419656
C 1.1834756894 0.0599288905 0.0012540178
C -0.0501901139 0.722546852 -0.0039655163
C -0.1420332319 2.2262163278 -0.0134467638
O 2.3902745806 0.7003032228 0.0105269913
H -2.5695305088 1.6440824246 -0.0109328642
H -3.1542794419 0.2078745495 -0.8503180706
H -3.1210829246 0.2445311586 0.9064316596
H -2.0473649007 -2.014681766 -0.0004701289
H 0.1414379168 -3.1557467533 -0.0084364076
H 2.2202381112 -1.7935435609 -0.0007850107
H -0.6336241809 2.5795761678 0.8919376715
H 0.830517122 2.7078774964 -0.0708890377
H -0.7200993933 2.5598900834 -0.8735801079
H 2.276775724 1.6614734285 0.0387726852
*
