! pbe def2-sv(p) def2/J RI DEFGRID1 loosescf d4 GCP(DFT/SV(P)) printgap
%output
    printlevel normal
end
* xyz 0 1
C 4.7581015894 1.1259861986 -0.9604285099
C 4.5268799852 0.968328221 0.5281395387
O 3.5721176189 -0.0650355825 0.830350599
P 2.0437291859 0.0305298425 0.4066421167
S 1.2056731888 1.7844680064 0.6119945171
O 1.3670048429 -1.0671186568 1.3179607987
C 1.8289403691 -2.4406125272 1.3772541685
C 2.6951065123 -2.6580403753 2.6005717681
S 1.999597699 -0.8026938083 -1.5600935008
C 0.3286072098 -0.2757155069 -1.9561605135
S -0.9379589424 -1.3506268898 -1.1647675768
P -2.3710001985 0.0426142259 -0.4873100575
S -4.225100104 -0.5864685782 -0.4204835652
O -2.0669413458 1.2209819355 -1.5039569071
C -3.0142769178 2.2878641893 -1.7255175574
C -3.1407228546 3.1936964138 -0.5190697605
O -1.8370440458 0.6265657717 0.8985555351
C -2.3189271479 0.1426285391 2.159281258
C -1.8053395744 -1.2504719183 2.4601160836
H 5.5811998546 1.814515795 -1.1227725333
H 4.9952778545 0.1658037201 -1.4115925929
H 3.8650180593 1.52689997 -1.4368907171
H 4.1676690697 1.905802756 0.9633516244
H 5.4320477747 0.6433324286 1.0430939579
H 0.9166288523 -3.0397091861 1.4176040262
H 2.37499858 -2.6713704908 0.4585895372
H 2.1499463483 -2.3846431575 3.4999417425
H 2.9715719086 -3.7062350757 2.6551411398
H 3.5948315439 -2.0519380733 2.5368948947
H 0.2129314893 -0.3556538922 -3.0331383609
H 0.1862876814 0.7464449115 -1.6066614675
H -2.6067360488 2.8173748283 -2.5877310395
H -3.9806037846 1.8414581952 -1.9812328792
H -2.1555273825 3.5133588558 -0.1863060307
H -3.7344778894 4.0632222819 -0.7828408285
H -3.6308575548 2.6641188842 0.2965602766
H -1.9534954741 0.8740240061 2.8816567965
H -3.4142425293 0.1504880189 2.1366398239
H -2.1613254442 -1.5658295963 3.4354765901
H -2.1715244149 -1.9461748135 1.7037736977
H -0.7189338913 -1.2547221174 2.4492607234
*
