! r2scan-3c def2/J RI DEFGRID2 scfconv6 printgap
%output
    printlevel normal
end
* xyz 0 1
C 5.0597242811 -2.3746590585 -1.4807929361
C 4.1048708897 -1.198960657 -1.5303194738
O 3.0863698362 -1.4139140474 -0.5329979274
P 2.1797490123 -0.2276700998 0.0041683381
S 3.1393604049 1.4052191056 0.524401506
O 1.3459617156 -0.9450490004 1.1386279355
C 1.743117409 -0.8853762389 2.5261154329
C 3.0161469648 -1.6659885334 2.772307778
S 0.7302973664 0.0018332604 -1.5206068912
C 0.064366995 1.5739298473 -0.9106880811
S -0.9073949615 1.3843833545 0.6010639762
P -2.5463800172 0.3693515644 -0.3231350952
S -3.0197737901 0.978814479 -2.1175786586
O -3.6960741774 0.4378838848 0.7734170023
C -4.6335994399 1.5283752894 0.8535510987
C -3.9655941813 2.8404645047 1.2086953984
O -2.1686845367 -1.1606421165 -0.2971869263
C -1.9297800593 -1.8953694194 0.9300620804
C -1.1369085184 -3.1363117728 0.5776959605
H 5.5391548784 -2.4283723948 -0.5075737484
H 4.5173185456 -3.298631937 -1.658404404
H 5.8178849853 -2.249428898 -2.2467954925
H 3.6169522228 -1.1204991372 -2.5057227061
H 4.6158666208 -0.2554857265 -1.3099793444
H 1.8695123449 0.1653279587 2.8056221208
H 0.8945931192 -1.3123857047 3.0619548406
H 3.237161563 -1.6707749966 3.8350060432
H 2.9060864572 -2.6874377637 2.4183820619
H 3.8430367027 -1.1960122845 2.2410427098
H -0.5718553773 1.9720415558 -1.7014599738
H 0.8872109764 2.2506415835 -0.6786365228
H -5.1499790293 1.6078364813 -0.1076978568
H -5.3332270878 1.2092368865 1.6273601714
H -3.3582528084 2.7282852138 2.1034076056
H -3.3273170827 3.1674522262 0.389177508
H -4.7273491241 3.5939229853 1.3812887187
H -1.3813266618 -1.2484537194 1.6213206074
H -2.9013739875 -2.1434030876 1.3614933471
H -1.6712662175 -3.716520902 -0.1690971139
H -0.1656698529 -2.8588375375 0.1753189986
H -0.9975818213 -3.736829324 1.4708511699
*
