  19
        -26.30151251
 C         -3.0829903909        0.4062566804        0.0002016151
 C         -1.6252395053        0.0548488153       -0.0002333035
 C         -1.1974958239       -1.2625706734       -0.0001866917
 C          0.1534399309       -1.5680232445       -0.0000046132
 C          1.0999736548       -0.5556712220        0.0000739370
 C          0.6912658305        0.7836984492        0.0000683741
 C         -0.6634377495        1.0605343250       -0.0000631356
 C          1.7252359611        1.8669084841       -0.0000610487
 O          2.4414269016       -0.8139917538        0.0001056283
 H         -3.3309137069        0.9914661135        0.8843403637
 H         -3.3283824848        1.0051621300       -0.8753512754
 H         -3.6970745122       -0.4901164992       -0.0074720622
 H         -1.9206134600       -2.0649492510       -0.0002520458
 H          0.4707146919       -2.6014956913       -0.0000473395
 H         -0.9835061710        2.0929281254       -0.0000409762
 H          2.3666808110        1.7693689739        0.8746415338
 H          2.3613841040        1.7741931110       -0.8791791780
 H          1.2592393264        2.8478221535        0.0039156874
 H          2.5971963398       -1.7695081477        0.0002099118
