! r2scan-3c def2/J RI DEFGRID2 scfconv6 printgap
%output
    printlevel normal
end
%cpcm
    smd true
    smdsolvent "water"
end
* xyz 0 1
C 2.5519378218 -1.2857179296 3.1779139253
C 1.3619327918 -1.3037945408 2.241163488
O 1.3334514771 -0.1120502065 1.4394319026
P 2.1687202563 0.0636364724 0.1047423134
S 2.9993412519 -1.5832804075 -0.5712152745
O 3.1189359762 1.2461365717 0.5670924506
C 3.7990772588 2.1663411831 -0.306666215
C 4.6373599442 1.469452218 -1.3584426945
S 0.8130174923 1.033043822 -1.2072103077
C 0.098036881 -0.4638251055 -1.9262279348
S -0.7085289456 -1.5313135955 -0.6977333321
P -2.2007298663 -0.1712056392 -0.0794340532
S -2.8833710589 1.0721705384 -1.4359818317
O -1.5584914701 0.4677638339 1.2147919758
C -1.9401541852 1.7616162756 1.737827843
C -0.8653991208 2.7885973773 1.4418033114
O -3.2778928354 -1.1319121641 0.5915432317
C -4.1662315933 -1.960780213 -0.1867629465
C -5.5016809634 -1.2731418496 -0.395104334
H 3.4724387944 -1.2859056852 2.5954063286
H 2.5294558826 -0.393628514 3.797573373
H 2.5298234705 -2.1685178214 3.8088054766
H 0.4126563876 -1.2926671017 2.7795138227
H 1.3986878282 -2.1784781335 1.5823866757
H 3.0494046063 2.8111912369 -0.7739315531
H 4.4191046714 2.7529052461 0.3737157462
H 5.1970655028 2.2095425844 -1.921270808
H 5.3296272538 0.7726045605 -0.8917808159
H 3.9975497264 0.9135174855 -2.0423635052
H 0.882742021 -1.0677045495 -2.3810797635
H -0.633100321 -0.1327351097 -2.6628608934
H -2.8965908227 2.0599559298 1.2991922667
H -2.0597068489 1.604858223 2.8110010176
H -0.8146981696 2.983443655 0.3724866573
H -1.1004779467 3.7118811157 1.9613908474
H 0.101956487 2.4205568254 1.7761524244
H -3.6930055422 -2.198859112 -1.1436727821
H -4.2756112253 -2.8742050958 0.4007756135
H -5.3715167909 -0.3659770445 -0.9810213212
H -6.1697155215 -1.9441035888 -0.9253706375
H -5.9399813568 -1.0117984367 0.563941043
*
