! pbe def2-sv(p) def2/J RI DEFGRID1 loosescf d4 GCP(DFT/SV(P)) printgap
%output
    printlevel normal
end
* xyz 0 1
C 4.209009218 2.3279542385 -0.724167466
C 4.5475180798 0.8578615405 -0.5839732975
O 3.3964430139 0.0154279875 -0.7757534711
P 2.1878149834 -0.0202014495 0.2535921081
S 2.7006493855 0.0809782456 2.1463572577
O 1.4142560283 -1.3280669148 -0.1935781685
C 1.6530193038 -2.6177788125 0.3979568338
C 3.0342081419 -3.1425160793 0.0688293767
S 0.8490603344 1.4330970993 -0.4648519864
C -0.1729482086 1.5414261336 1.032032298
S -1.0211745208 -0.0088973398 1.4495023175
P -2.1294825492 -0.3272039151 -0.3380269357
S -1.3277269205 -1.1328279616 -1.9253067059
O -2.7916435914 1.1109281703 -0.5447388637
C -2.86445153 1.8080240385 -1.8069732493
C -2.1138201807 3.1221180734 -1.7279080739
O -3.2881367472 -1.2666392769 0.1932019999
C -4.1832141968 -0.8904697795 1.2722219119
C -5.5163946197 -1.5674390777 1.0284952575
H 5.1240864281 2.9107233327 -0.6953979245
H 3.6939042373 2.5086398398 -1.6644565205
H 3.5640629755 2.641705291 0.0956939356
H 4.9634382373 0.6519614951 0.407650908
H 5.2436612344 0.5274213633 -1.3559578988
H 1.5148377332 -2.5304487649 1.4813397078
H 0.8663415833 -3.2454259902 -0.0252876379
H 3.1872124563 -3.139504284 -1.0074053649
H 3.7900545378 -2.5116931312 0.5358667396
H 3.1340673196 -4.1547584966 0.4477990094
H -0.9047990559 2.3267341428 0.8622800254
H 0.4608993382 1.7658272704 1.8901637189
H -2.4545491396 1.1625650152 -2.5907712346
H -3.9283091516 1.9714228812 -1.9899652354
H -2.2625771069 3.6641434308 -2.656102576
H -2.4894067882 3.7209845843 -0.9028326749
H -1.0482973483 2.9458703492 -1.5913160915
H -3.7281965956 -1.2259707386 2.2068532492
H -4.2827886221 0.197068535 1.2856370047
H -5.3813626079 -2.6439783893 0.9765069116
H -6.1913123473 -1.3278809454 1.8438756875
H -5.9464541803 -1.2251962214 0.0913392771
*
