! pbe def2-sv(p) def2/J RI DEFGRID1 loosescf d4 GCP(DFT/SV(P)) printgap
%output
    printlevel normal
end
* xyz 0 1
C 1.5595770769 -4.1159842416 -1.7026540476
C 2.0791520832 -2.8620551068 -2.3876011001
O 1.9115996059 -1.7098412215 -1.540931356
C 2.8228291481 -1.4727987055 -0.6184087099
O 3.8343593444 -2.1214045286 -0.4690651681
C 2.4876600417 -0.2690812811 0.2431157819
C 1.0625028091 0.2335331397 0.0626535154
H 0.8663643289 0.4504339715 -0.9930718486
C 0.7907900012 1.5026374528 0.8510351191
O -0.1758199069 1.6264105041 1.5751800241
O 1.7026784974 2.4128893443 0.6404896009
C 1.5155360156 3.7197904344 1.2264697427
C 0.7120634385 4.6057642659 0.2891799583
S -0.151347399 -1.0209455077 0.5982538278
P -1.9162492887 0.0976403265 0.2115126001
S -1.7959097061 1.5513333851 -1.0935712641
O -2.9002253462 -1.0802398062 -0.2735571871
C -2.6991393589 -1.7378116943 -1.5266370807
O -2.6490126257 0.4916443582 1.5525786918
C -2.832922687 -0.4374946685 2.6375243964
H 0.531253483 -3.9698759805 -1.382971355
H 1.6069224987 -4.950146538 -2.394538967
H 2.1676260226 -4.3431224747 -0.8303288758
H 1.5033985165 -2.6269907198 -3.2829092958
H 3.1402345773 -2.9660972757 -2.6311569381
H 3.1829714464 0.5327989925 -0.0173675406
H 2.6744489577 -0.5494941466 1.2815545662
H 1.0061015633 3.6027558666 2.186502401
H 2.5264701832 4.1006299069 1.3703446533
H 0.5944979992 5.5882992114 0.7336045482
H 1.219275871 4.7003152637 -0.6667432182
H -0.2732128596 4.1752413682 0.1169346165
H -2.6231860123 -1.0007255923 -2.3277566728
H -3.5718700369 -2.3692209975 -1.6707778874
H -1.7903826992 -2.3388917736 -1.489174922
H -3.4093234944 -1.2967837441 2.2991147862
H -3.3743817342 0.1207147932 3.3966814327
H -1.862506708 -0.7579617246 3.0163786712
*
