! r2scan-3c def2/J RI DEFGRID2 scfconv6 printgap
%output
    printlevel normal
end
* xyz 0 1
C -1.7177830021 -0.713425504 -0.4879461258
C -0.8508893484 -0.1236355013 0.6191336735
N 0.4792088413 0.1901478109 0.1025746966
O 0.8857705662 1.3284113637 0.2249797558
O 1.1133495481 -0.6998691385 -0.4240132817
H -1.2236246628 -1.5752660436 -0.9289999304
H -2.6688016055 -1.0266722372 -0.0707761226
H -1.9025779187 0.0226305819 -1.2658872359
H -0.7178676082 -0.8629877294 1.4125490746
H -1.2705450292 0.7973712548 1.0237846167
*
