! pbe def2-sv(p) def2/J RI DEFGRID1 loosescf d4 GCP(DFT/SV(P)) printgap
%output
    printlevel normal
end
* xyz 0 1
C 1.4420915598 -0.1837048309 -3.0436566597
C 2.4936348889 0.3720577602 -2.1038176924
O 2.8113335385 -0.5825386269 -1.0773151679
P 2.232947351 -0.5368140232 0.4059983872
S 2.3745638576 1.2176921316 1.2816943854
O 3.0646983252 -1.7097753583 1.0682702802
C 4.4468589516 -1.5404990686 1.4587892324
C 4.5436681642 -1.2893737527 2.9505428689
S 0.3670841948 -1.4946908469 0.3594784565
C -0.4981460221 -0.5119918902 1.6410976559
S -2.2465341959 -0.3088567357 1.2614189149
P -2.0370560445 0.7203700005 -0.5957391517
S -0.5416816658 1.9702953618 -0.7636403681
O -3.4838770637 1.343171723 -0.8237752397
C -3.8730442529 2.6351330159 -0.3251934233
C -3.8892912967 2.6925380603 1.1885967353
O -1.9963683099 -0.3956435058 -1.7079050504
C -3.0172416783 -1.4228467116 -1.8328180814
C -2.4255133982 -2.7821603263 -1.5208696388
H 1.3063987656 0.5064643613 -3.8701939879
H 1.7583441269 -1.1510394382 -3.4236468227
H 0.4901826237 -0.2992426465 -2.5282408463
H 2.1575873853 1.3060978326 -1.6405514078
H 3.4366691267 0.5460530219 -2.6258240991
H 4.9314604199 -2.4767108681 1.1771049371
H 4.8848511053 -0.7154054103 0.8907679325
H 4.0546572243 -0.350946807 3.2036661071
H 4.0611422059 -2.0959785906 3.4949723253
H 5.5887195512 -1.2336790397 3.2379037223
H -0.0128373452 0.466379764 1.7033532547
H -0.450907665 -1.0372545277 2.5916469267
H -3.1841050235 3.3823265597 -0.7310907993
H -4.8692546112 2.7828402163 -0.7447131024
H -4.3170202999 3.6384356166 1.5052423058
H -4.4791731939 1.8742185737 1.5936793866
H -2.8739791618 2.6203944104 1.5760138094
H -3.8461028674 -1.1854296881 -1.1627873103
H -3.3531283312 -1.3615608987 -2.8688932042
H -3.1797686905 -3.5433058749 -1.692242149
H -1.5684313666 -2.9733994319 -2.1600967664
H -2.0974915922 -2.8289174763 -0.4850041875
*
