! pbe def2-sv(p) def2/J RI DEFGRID1 loosescf d4 GCP(DFT/SV(P)) printgap
%output
    printlevel normal
end
* xyz 0 1
C 5.6846629591 -0.6159106266 -0.2104304916
C 4.6552761931 -1.7265456674 -0.2447783994
O 3.4370366854 -1.3228663978 -0.909469577
P 2.4974724148 -0.1566221687 -0.4068355997
S 2.9600538831 1.7008309363 -0.8589247063
O 2.4433541305 -0.4484598227 1.1571757137
C 1.9148961921 0.4690916541 2.1339394793
C 0.6766232123 -0.1199295064 2.7795338766
S 0.7188866127 -0.8827421832 -1.305841496
C -0.0579592946 0.715800272 -1.658306794
S -0.8309140883 1.4726075809 -0.2083951541
P -2.5329721449 0.2153553985 -0.1856243247
S -3.3687218482 -0.1352424816 -1.9169049477
O -3.5476364447 0.8835609465 0.827281579
C -3.2762879497 1.0879648677 2.2375349005
C -2.715113657 2.4720219621 2.4923830134
O -1.9166141958 -1.0634629698 0.5560528027
C -2.3820381259 -2.3986390661 0.2896516882
C -3.7269424521 -2.6485046982 0.9411701307
H 5.3147537358 0.2212404586 0.3802756663
H 6.6027873569 -0.9869428757 0.2341297913
H 5.8903019959 -0.2598526032 -1.2172334105
H 4.4034193135 -2.0590709366 0.7643004755
H 4.9992226798 -2.5731667622 -0.8412314284
H 2.7119073257 0.6076769842 2.8676868673
H 1.7011386019 1.4279496416 1.6503862894
H -0.0939979849 -0.2889432609 2.0316538959
H 0.9185087514 -1.0678216969 3.251801539
H 0.3040006149 0.5727700043 3.5271503958
H -0.8205676342 0.5413579673 -2.4179636619
H 0.7016585428 1.4162729697 -2.0078822695
H -4.2510490561 0.9642508026 2.7124362136
H -2.5915146897 0.3110071226 2.5842002006
H -1.7430072645 2.586615432 2.0171443122
H -3.387322656 3.2259680003 2.0924201849
H -2.6091806212 2.6192847666 3.5626220463
H -2.4437112058 -2.5372444285 -0.7941017493
H -1.6009476351 -3.0415294381 0.697299559
H -4.46781881 -1.9678358112 0.5218693611
H -4.0375830367 -3.6699179258 0.745717653
H -3.6663385232 -2.4894713703 2.0145688247
*
