! r2scan-3c def2/J RI DEFGRID2 scfconv6 printgap
%output
    printlevel normal
end
* xyz 0 1
C 4.8361827416 -3.1356122212 -1.7588563044
C 4.9484427474 -2.1021617018 -0.6495203078
O 3.7476141076 -2.0720327877 0.1473820791
C 2.7597514891 -1.2865872012 -0.2261363138
O 2.7851234395 -0.5549412016 -1.194739031
C 1.5824202976 -1.3866803504 0.7213275374
C 0.4198454103 -0.605805295 0.1400846288
H 0.0481273095 -1.0512878468 -0.7889694215
C 0.7354480048 0.8494517411 -0.1323686688
O 0.1208321649 1.4969855434 -0.9551603844
O 1.6531494962 1.3320859429 0.6735330003
C 1.9835446051 2.7316605554 0.5644846239
C 0.9557360931 3.5958564997 1.276807739
S -0.9849204036 -0.5286991535 1.3018556051
P -2.4333773526 0.2150903823 -0.0742399451
S -2.3150546097 -0.4521558626 -1.9077195689
O -3.7908771575 -0.175750652 0.6741566861
C -4.2271710931 -1.5385223991 0.7481418989
O -2.4781213243 1.7886002924 0.074386878
C -2.8003686988 2.4160154175 1.3339182155
H 4.0451899218 -2.8564627601 -2.4517300309
H 5.7752479045 -3.1852001058 -2.2999966961
H 4.6114084766 -4.112206809 -1.3394628311
H 5.1173544068 -1.1046376432 -1.0648052473
H 5.7368229077 -2.361325604 0.0571142124
H 1.880296068 -0.9721325832 1.6861908057
H 1.3160195146 -2.4333463672 0.8664137171
H 2.9660569685 2.8073089322 1.0299975669
H 2.0429030362 2.9898127444 -0.4966291878
H 0.8512894811 3.2787501563 2.3108764166
H 1.278925829 4.63101664 1.2482205226
H -0.0056730145 3.5130693855 0.774920111
H -3.6280964745 -2.0766286829 1.481825196
H -4.1376183733 -2.0134138216 -0.2299924759
H -5.2683067237 -1.4956675377 1.0570904823
H -2.165761487 2.0157097553 2.1254561559
H -3.8473292948 2.2405529999 1.571928718
H -2.6108789444 3.4755964398 1.1818612522
*
