! pbe def2-sv(p) def2/J RI DEFGRID1 loosescf d4 GCP(DFT/SV(P)) printgap
%output
    printlevel normal
end
* xyz 0 1
C 4.6088365379 -1.2124605233 -1.4669868031
C 4.3364352097 -1.3300890642 0.0184720726
O 3.5691774342 -0.2310976557 0.5416805881
P 2.174267121 0.2923705745 -0.0179219303
S 2.2230962785 1.3497978238 -1.6743422422
O 1.6509696156 1.0549436347 1.271654015
C 1.8192358838 2.4717624061 1.4460043496
C 3.2732901382 2.834486623 1.657653857
S 0.9990187546 -1.4540302676 -0.0174449081
C -0.0580327091 -1.1612507077 -1.4838728975
S -1.7939034698 -1.519879616 -1.1686877971
P -2.3525544617 0.2259886216 -0.078604163
S -1.1299746488 1.7496840868 -0.2443321916
O -2.6479833956 -0.2095457336 1.4242222689
C -1.6315649036 -0.5173763881 2.392523623
C -1.473414714 -2.0184000283 2.544298401
O -3.7879828739 0.5911023454 -0.5958652902
C -4.8247522588 -0.3403805228 -0.999539248
C -5.1155438189 -1.3904685153 0.0494884286
H 5.0849242718 -0.2611990179 -1.692621124
H 5.2594385413 -2.0233129406 -1.7784246377
H 3.6769691563 -1.2679482559 -2.0279240189
H 5.2616530661 -1.2915091137 0.5963696318
H 3.7992187598 -2.2563059163 0.2417921758
H 1.4065693467 2.9815641827 0.5683101682
H 1.2057402924 2.7057717376 2.3171843471
H 3.8442892627 2.5887635071 0.76268318
H 3.355696339 3.8994541953 1.8502391862
H 3.6792162991 2.2769651015 2.4975495847
H 0.2481194144 -1.8486815305 -2.2682566539
H 0.0652534984 -0.1204321499 -1.7952058229
H -0.6898146832 -0.0400401666 2.0992224424
H -1.9835898816 -0.062399095 3.3205868699
H -1.1117564703 -2.4647271252 1.6207552482
H -0.754323057 -2.21959055 3.3316548159
H -2.4282535996 -2.4654480512 2.8051551343
H -5.683816651 0.3098928776 -1.1713953814
H -4.5142034548 -0.8030337484 -1.9394484851
H -4.2563054819 -2.0471146501 0.1712865439
H -5.3410003744 -0.9186557264 1.0022839629
H -5.9678780762 -1.9819293742 -0.2705303983
*
