! r2scan-3c def2/J RI DEFGRID2 scfconv6 printgap
%output
    printlevel normal
end
* xyz 0 1
C 4.7821829148 -3.7350182666 -1.3651140289
C 4.2640714742 -2.4934268318 -0.6659687894
O 3.2551851332 -1.8947948678 -1.5055442275
C 2.4055415731 -1.0561537404 -0.9606989696
O 2.4066590109 -0.7415065544 0.2126189281
C 1.4184259652 -0.5094630802 -1.9702918198
C 0.3112297679 0.241326261 -1.2432708341
H -0.3070843808 0.8041395043 -1.9505756829
C 0.9209716681 1.2409592128 -0.2731923479
O 1.8220324692 1.9802067797 -0.5998426656
O 0.3052030681 1.2587597982 0.8901234798
C 0.7907622251 2.1410256719 1.9206715511
C 1.6471121811 1.3632226854 2.9052558734
S -0.7821717283 -0.9388025756 -0.3839238591
P -2.2550200808 0.4317485683 0.2990721646
S -2.391209774 2.1313321249 -0.6641295728
O -3.582248486 -0.4651536465 0.2199896051
C -4.1420352262 -0.8525016273 -1.0395495932
O -2.1473528519 0.6043318581 1.8652640961
C -2.0449857698 -0.5246434805 2.7547380336
H 3.9765101053 -4.4492026582 -1.5060555499
H 5.190271821 -3.4700579237 -2.3356232618
H 5.5604643962 -4.1878172388 -0.7600313714
H 5.057457175 -1.7551776227 -0.5153756863
H 3.8140414055 -2.7246795456 0.304265224
H 1.0193648152 -1.3228802624 -2.5750030557
H 1.9577167201 0.1833741151 -2.6201326722
H 1.3612135684 2.940506526 1.4397297793
H -0.1068481805 2.5473688955 2.390643806
H 2.0538717289 2.0456762464 3.6437806236
H 1.0533580835 0.6021787319 3.4032504336
H 2.46230905 0.8765750015 2.3738043799
H -5.1201383579 -1.267206007 -0.8096229863
H -3.506376677 -1.6011149255 -1.5120156321
H -4.2404855791 0.0187055926 -1.6891463409
H -1.1442981532 -1.0945676244 2.5256100718
H -2.9240025251 -1.158545483 2.6558908304
H -1.9878474388 -0.0960290713 3.7519741089
*
