! r2scan-3c def2/J RI DEFGRID2 scfconv6 printgap
%output
    printlevel normal
end
%cpcm
    smd true
    smdsolvent "water"
end
* xyz 0 1
C 5.1281731194 -1.0021174866 0.6588639777
C 4.7333808887 -1.3931822601 -0.7560250547
O 3.3223535322 -1.6772323256 -0.8338591344
C 2.4912546825 -0.692988715 -1.1032865014
O 2.8248698017 0.4503663528 -1.3387114288
C 1.0538826412 -1.1677736321 -1.0936647288
C 0.1425180426 -0.0429739915 -1.5523767073
H 0.3218801229 0.2170263093 -2.5988948049
C 0.277006465 1.2291317729 -0.737087807
O -0.0197465732 2.317920309 -1.1793230826
O 0.6754869951 0.9915367138 0.4919033254
C 0.9048528398 2.097445934 1.3851393473
C 2.370000375 2.1187517201 1.7827963419
S -1.6206699593 -0.5151894891 -1.5089062327
P -2.0995194353 -0.2488089668 0.5533226394
S -1.0528379306 -1.187437485 1.9105243672
O -2.203219182 1.3063736847 0.8328313837
C -3.0275188731 2.205204479 0.0611089033
O -3.6428799189 -0.6560633348 0.5243904148
C -4.0449053866 -2.0259374776 0.3894025185
H 4.8303913524 -1.7790044261 1.3575072874
H 6.2036323027 -0.8675783494 0.7076599601
H 4.6427480236 -0.0701341345 0.9393180459
H 5.2153047097 -2.3224429811 -1.0601238422
H 4.9677606606 -0.5914338736 -1.4621666992
H 0.8112940696 -1.4789545964 -0.0732564747
H 0.9515270814 -2.0368260203 -1.7439745939
H 0.6108803863 3.0191850132 0.8758349963
H 0.2573264023 1.9229466583 2.2479242811
H 2.5530903603 2.9668689807 2.4337813594
H 2.6247418574 1.2008862019 2.3058193158
H 2.9901151751 2.2065191994 0.8928539112
H -3.3508597919 2.9744281809 0.7576799908
H -3.8837889037 1.6786496077 -0.3539409795
H -2.4209336326 2.6412894709 -0.7334629532
H -3.4621757557 -2.6546252002 1.0641169425
H -3.9037826773 -2.351625055 -0.6403987325
H -5.0972000914 -2.0492378145 0.660871133
*
