! pbe def2-sv(p) def2/J RI DEFGRID1 loosescf d4 GCP(DFT/SV(P)) printgap
%output
    printlevel normal
end
* xyz 0 1
C 2.5003912466 -3.3532462487 -0.0700706677
C 3.0516082378 -1.9589784851 0.1803340922
O 2.2038575121 -0.9582176377 -0.4142488847
C 2.3527140936 -0.7004856743 -1.7046250391
O 3.2092888654 -1.1953306012 -2.401026532
C 1.3434652186 0.3055607193 -2.2169326243
C 0.2463420341 0.632135721 -1.2154563046
H -0.4102641489 1.4124201484 -1.6168720773
C 0.7835939119 1.1314658898 0.111867771
O 0.3093670077 0.788559654 1.1755788336
O 1.748215564 1.9992158812 -0.0411333594
C 2.315619843 2.6035837754 1.1411040042
C 3.3383696268 1.6875512445 1.7915737609
S -0.8007607465 -0.8233439774 -0.8665267448
P -2.1496943144 0.0934516921 0.4914414696
S -2.4232024809 2.0243730156 0.3137584389
O -3.485598064 -0.7411772166 0.1520153106
C -4.1702729119 -0.5789213423 -1.0921095969
O -1.9455179405 -0.4115552274 1.9742874421
C -1.5302670404 -1.7536140526 2.2849418942
H 2.5337910251 -3.5812035217 -1.1326479764
H 3.1018386135 -4.0786610407 0.467498746
H 1.4696478104 -3.4158897957 0.2695873032
H 4.0564286881 -1.8571706125 -0.2392728434
H 3.0578530643 -1.7172807337 1.2437491417
H 0.9125619924 -0.0942758998 -3.136133789
H 1.884781296 1.2204442777 -2.4693339031
H 2.7745297367 3.5209690902 0.7729882383
H 1.5022455168 2.8353119706 1.8346913905
H 3.8019002899 2.2053524555 2.6246798947
H 2.8507634692 0.7889383447 2.1618493275
H 4.1035777389 1.4077709649 1.0723320605
H -4.3153342118 0.4820864058 -1.3031367784
H -5.1293352952 -1.0747745932 -0.9667547191
H -3.5976526063 -1.0440507584 -1.8945844368
H -1.6592169096 -1.8486414428 3.3599442576
H -0.4816364563 -1.8759570901 2.0135303112
H -2.1490332787 -2.4753416548 1.7536609184
*
