! pbe def2-sv(p) def2/J RI DEFGRID1 loosescf d4 GCP(DFT/SV(P)) printgap
%output
    printlevel normal
end
* xyz 0 1
C 4.3875470622 -1.7490376079 -2.0094120191
C 3.5751761589 -2.3779686068 -0.8972948693
O 3.22407268 -1.4381326142 0.1357363032
P 2.4653104627 -0.0615935171 -0.091423305
S 3.459213709 1.4741639492 -0.7865440581
O 1.9583908272 0.2705128601 1.3586090898
C 1.1615892892 -0.6221049616 2.1794550755
C 0.7664595042 0.1498154622 3.4210694658
S 0.7636515299 -0.6415632554 -1.2510076723
C 0.1389182731 1.0335179365 -1.4774961044
S -0.6976355196 1.677927598 -0.0062558143
P -2.4541808547 0.5214385871 -0.2428288588
S -3.1157583797 0.2434247553 -2.0604219442
O -3.5349682402 1.2773641856 0.634263961
C -3.295256848 1.8735425266 1.9313558479
C -3.1768260379 0.8322473932 3.0251794035
O -2.0491275791 -0.8182828155 0.5308860481
C -2.5763194762 -2.1225839509 0.2056488531
C -1.4842849118 -3.1559286923 0.3957103792
H 4.6924951222 -2.5169125657 -2.7130309461
H 3.7925325083 -1.0028540504 -2.534387829
H 5.2701889379 -1.2592858001 -1.6048757313
H 4.1476920051 -3.1403428465 -0.3661241227
H 2.6519967464 -2.8114709857 -1.2916136069
H 0.2839166431 -0.9303754417 1.6039636016
H 1.7666143477 -1.4983761831 2.4190177032
H 0.1987481194 1.0335417019 3.1413549959
H 0.1625874147 -0.4843948791 4.0622748698
H 1.6544072015 0.4658964549 3.9607723239
H -0.566772319 1.0069472526 -2.3085749067
H 0.9771436638 1.7014475548 -1.6841657294
H -2.392175681 2.487075833 1.8686234882
H -4.1646710176 2.5162520748 2.0798909043
H -2.3040919914 0.2064618325 2.8590051138
H -3.0766574451 1.3356184248 3.9817778035
H -4.06525346 0.2062710315 3.0427456768
H -3.4203450312 -2.3081357936 0.8741693587
H -2.9344932508 -2.1081457964 -0.8289166855
H -0.6537836942 -2.9496918577 -0.2744023035
H -1.1288779061 -3.1447310286 1.4220921195
H -1.8883277451 -4.1370173593 0.1683721694
*
