! r2scan-3c def2/J RI DEFGRID2 scfconv6 printgap
%output
    printlevel normal
end
* xyz 0 1
C 5.4288012006 -0.2129512569 -0.8869089129
C 4.4469803644 -0.9387636193 0.0124853877
O 3.4438428144 -0.0334077496 0.5138530829
P 2.020273059 0.1244543723 -0.1799231886
S 2.0356546782 0.4649945388 -2.1139408231
O 1.363501141 1.214109326 0.7590725133
C 1.4528057002 2.6245080449 0.4804694759
C 2.8749683323 3.1297366541 0.586232094
S 1.070838894 -1.6460157009 0.4436027063
C -0.1569089117 -1.8909416912 -0.8891237142
S -1.8512047416 -1.9422760119 -0.2716162929
P -2.0569543169 0.1214811588 0.1953381188
S -1.3390992603 1.3733276501 -1.1292322919
O -1.3959258819 0.3381956358 1.6097487622
C -1.4519597519 -0.5595252454 2.747326922
C -2.8648827212 -0.9235999453 3.145981102
O -3.6059251252 0.3049217103 0.4919412636
C -4.5648783073 0.6027933366 -0.5372474464
C -4.7445684959 -0.5459970069 -1.5085512545
H 5.883964869 0.615946277 -0.3520817219
H 6.2023902511 -0.9050420989 -1.2031902749
H 4.9175288154 0.1724712741 -1.7665210694
H 4.9377402214 -1.3286298059 0.9060850338
H 3.9596206332 -1.7586946071 -0.5230134609
H 1.0434805044 2.8068758522 -0.5191807698
H 0.796406565 3.0767605983 1.2256755719
H 3.2948295693 2.8672190603 1.5537793192
H 3.4830858748 2.6796032442 -0.1977207016
H 2.8823010196 4.2083635225 0.4644107456
H 0.030870401 -2.859987319 -1.3437920247
H -0.043895166 -1.0832138222 -1.6181371699
H -0.8698744584 -1.4538164736 2.505880632
H -0.9421112505 0.0060096533 3.5288097989
H -3.3356240007 -1.5198568594 2.3672306271
H -2.8312009616 -1.5031196147 4.0634803882
H -3.4551516149 -0.0255342899 3.3078946713
H -5.4817176046 0.8092364648 0.0166197697
H -4.2377291448 1.5044395793 -1.0647254188
H -5.5735554861 -0.3250776113 -2.1732443953
H -3.8425435818 -0.6759681565 -2.1043452741
H -4.9473975252 -1.4690948413 -0.9717801571
*
