! pbe def2-sv(p) def2/J RI DEFGRID1 loosescf d4 GCP(DFT/SV(P)) printgap
%output
    printlevel normal
end
* xyz 0 1
C 5.6988762078 -1.0780445967 -0.0970089988
C 4.9032454414 -0.7408783165 -1.3408119851
O 3.4990180253 -1.0333105651 -1.1854711299
P 2.569308743 -0.2224973976 -0.1921993195
S 2.9440131941 1.6998372754 -0.0452180045
O 2.7354202382 -1.0499237567 1.1561723931
C 2.3604626661 -0.5272863984 2.4415391549
C 0.8590595494 -0.3850284609 2.5846030643
S 0.7080586502 -0.8240372942 -1.0091489058
C 0.0523878869 0.8064410416 -1.4662842682
S -0.9457067047 1.5789467295 -0.166995544
P -2.58650373 0.256079756 -0.3261562686
S -3.1413017496 -0.2342463421 -2.1335238383
O -3.7623476935 0.9464979779 0.4779717656
C -3.6689808242 1.3018175473 1.8812664373
C -3.3390313992 2.7716939927 2.044385516
O -2.0521627321 -0.9450158662 0.5876565747
C -2.4475674892 -2.3082506359 0.3554921022
C -3.8733121888 -2.5506810006 0.8078339674
H 5.5038448654 -2.1032820499 0.2062785467
H 6.7574848512 -0.9565997767 -0.3046089227
H 5.4192043656 -0.409911999 0.7161947807
H 5.2025686986 -1.3545193311 -2.1915255838
H 5.0089866826 0.3196083188 -1.5912114261
H 2.765833716 -1.2533559673 3.1477518348
H 2.85046101 0.4421379947 2.5786514409
H 0.4932773573 0.3944758301 1.916982432
H 0.3640482911 -1.3204414161 2.3351109123
H 0.6189055612 -0.1099668024 3.6066457583
H -0.5728368708 0.6611027603 -2.3469571271
H 0.876075919 1.4906447746 -1.667015193
H -4.6579453152 1.0731697788 2.2822767239
H -2.9169024375 0.6698071734 2.3590940421
H -2.3485987678 2.9883710613 1.6491605675
H -4.0669663623 3.3774217602 1.5119103505
H -3.3642704679 3.0256588372 3.0994062517
H -2.3353597815 -2.5279281771 -0.7107706341
H -1.7304664179 -2.8987224599 0.9271759718
H -4.5517480669 -1.9270802631 0.2257777108
H -4.1300719385 -3.5932434092 0.6492552657
H -3.9846191214 -2.3076295034 1.8612787014
*
