! pbe def2-sv(p) def2/J RI DEFGRID1 loosescf d4 GCP(DFT/SV(P)) printgap
%output
    printlevel normal
end
* xyz 0 1
C 3.2098490661 -1.2960407258 -2.9314632042
C 3.9707806383 -0.4349828098 -1.9437430637
O 3.4734060014 -0.5983066267 -0.6084114802
P 2.0353052912 -0.0702266924 -0.1667774637
S 1.6216398881 1.6750014572 -0.9719753181
O 2.1295777788 -0.1677465104 1.4096594537
C 2.5720147809 0.9381965882 2.2216795219
C 4.0295105096 1.2661828984 1.9826756213
S 0.844770869 -1.7844168126 -0.5431799644
C -0.2740047562 -1.9475395612 0.8909117319
S -2.0147630699 -1.7091227082 0.4655861145
P -1.9294617642 0.4021036885 0.2602105825
S -0.8533636481 1.3206150456 1.6144299324
O -3.4436276915 0.8721438519 0.2023759647
C -4.2121209475 1.1749435503 1.3800782107
C -4.4725676008 -0.0514658641 2.2306276135
O -1.4102426007 0.6854467723 -1.198380979
C -1.7459743361 -0.0401835847 -2.4076015669
C -3.2358170045 -0.1225141114 -2.6531834186
H 2.1703780698 -0.9683662412 -2.974042877
H 3.6525677439 -1.1970848728 -3.9171903393
H 3.2332579747 -2.3380540354 -2.6235081611
H 3.8914559444 0.6231828638 -2.2156264533
H 5.0197223148 -0.7254203836 -1.8745438627
H 1.9323751871 1.801412627 2.0094312817
H 2.3899713724 0.5977828184 3.2420994561
H 4.6396400207 0.3757687995 2.1100114941
H 4.1619114923 1.6447456259 0.9697516172
H 4.3441041587 2.0285403282 2.6883736144
H 0.0157113372 -1.2254012561 1.6540874355
H -0.1801221444 -2.9690317633 1.248753418
H -3.6769189631 1.9365417447 1.9561094864
H -5.1373897609 1.5942768682 0.9824659835
H -5.1681620666 0.206129376 3.0228351121
H -4.8932902146 -0.850556537 1.6257880579
H -3.5432677977 -0.3997897954 2.6781468746
H -1.235535183 0.5343454333 -3.1827286905
H -1.3029672695 -1.0386205286 -2.3392303649
H -3.7121834029 -0.7297198124 -1.8861710105
H -3.6752223398 0.8715248505 -2.6408015445
H -3.4052776766 -0.5795287198 -3.6232678449
*
