  31
        -57.62030541
 C         -4.7007143638        0.7982481058        0.0973830564
 O         -3.8599877469       -0.3068765956        0.4282420747
 P         -2.3367253065       -0.3924452160       -0.1035699076
 S         -2.2742583320       -0.1866385652       -2.0514882016
 O         -1.9898723877       -1.8203891623        0.4804323477
 C         -2.2234617224       -2.1616425770        1.8594168199
 S         -1.4779353653        1.1571520928        1.0915594423
 C         -0.3804337854        1.9107524513       -0.1540707166
 N          0.9489709874        1.3787197190       -0.0805009571
 C          1.1294601132        0.0173844984       -0.2233595422
 O          0.1609995074       -0.7237737231       -0.3911681940
 C          2.5139373566       -0.4016270898       -0.1385269014
 C          2.9035879778       -1.7346388758       -0.2791057966
 C          4.2386829680       -2.0609989897       -0.1864939780
 C          5.1975214993       -1.0715437623        0.0466538278
 C          4.8322922540        0.2480374208        0.1896864566
 C          3.4806223049        0.5993866460        0.0985881433
 N          3.1108466336        1.9119985083        0.2477686386
 N          1.9286017378        2.2650445006        0.1656569835
 H         -4.3917790240        1.6814892622        0.6571095668
 H         -5.7067127098        0.4984618106        0.3794954428
 H         -4.6498283371        1.0001443315       -0.9742280348
 H         -1.7354843332       -1.4388783707        2.5140096285
 H         -1.7838280642       -3.1481724523        1.9829812747
 H         -3.2932139210       -2.1836316702        2.0602428822
 H         -0.3348586080        2.9786326643        0.0495620162
 H         -0.8232143813        1.6985524968       -1.1352063298
 H          2.1410960550       -2.4764203948       -0.4614343073
 H          4.5466815928       -3.0886075603       -0.2951320981
 H          6.2372912410       -1.3493604137        0.1151684202
 H          5.5553549915        1.0257153311        0.3696917972
