! pbe def2-sv(p) def2/J RI DEFGRID1 loosescf d4 GCP(DFT/SV(P)) printgap
%output
    printlevel normal
end
* xyz 0 1
C 5.5532884464 1.0166415508 -1.2356761168
C 4.3129243815 1.3385817586 -0.4272990259
O 3.3280018777 0.3187587267 -0.6968387128
P 2.1193606294 0.0455645489 0.2940112662
S 2.6154785984 -0.1228542049 2.1864422007
O 1.4252764173 -1.2081435487 -0.3716191894
C 1.7040623177 -2.5594673033 0.0415018269
C 3.1124082067 -2.9743354172 -0.3253915194
S 0.7552206655 1.5739372666 -0.1826323713
C -0.2771468504 1.4122583037 1.3031170991
S -1.0686856606 -0.2131574989 1.4585479265
P -2.166534613 -0.2759091329 -0.3636824491
S -1.3327271954 -0.7802693241 -2.055028402
O -2.8813652105 1.1514740054 -0.3363307939
C -2.9809743747 2.041558907 -1.4686582423
C -2.2718987459 3.3486957311 -1.1768811046
O -3.288763594 -1.3311174674 0.0003376024
C -4.1980356604 -1.1700653723 1.1205836432
C -5.5072475774 -1.840091772 0.7571747471
H 6.2922178374 1.7951666501 -1.0772548473
H 5.9670302345 0.0611317795 -0.9258698936
H 5.3028828337 0.9655251683 -2.291316941
H 3.8887162074 2.3042043837 -0.7149727535
H 4.5232448677 1.3440675094 0.6477098507
H 1.5431415329 -2.630163638 1.1228869078
H 0.9519068956 -3.1506486976 -0.4841152563
H 3.2561633236 -4.0213572931 -0.077795293
H 3.2800921583 -2.8240613379 -1.3887541868
H 3.8289836467 -2.3740068646 0.2345965788
H -1.0356637832 2.1888739714 1.2511883502
H 0.3460167859 1.5209246332 2.1910646173
H -2.553834663 1.545432861 -2.3463513172
H -4.0501432543 2.1986517542 -1.6237209302
H -2.6626174573 3.7937602073 -0.2659615211
H -1.200698891 3.1866971864 -1.0696273627
H -2.4413096312 4.0291763484 -2.0049596174
H -3.733320566 -1.6421284061 1.9890650024
H -4.3340309794 -0.1039488053 1.3148384754
H -5.3359006846 -2.8875907726 0.5264789766
H -6.191156855 -1.7631261783 1.5962651918
H -5.9471977346 -1.3598547978 -0.1124273002
*
