! pbe def2-sv(p) def2/J RI DEFGRID1 loosescf d4 GCP(DFT/SV(P)) printgap
%output
    printlevel normal
end
* xyz 0 1
C 4.1238940261 2.4319008532 -0.5170292547
C 4.5108346735 0.9685210632 -0.4507572859
O 3.3974218395 0.0996462455 -0.7275141433
P 2.1636272603 -0.0425712325 0.2631192165
S 2.6253908915 -0.0482486085 2.171769784
O 1.4501419327 -1.3451165355 -0.2873867468
C 1.7160616974 -2.6603505159 0.2307698605
C 3.1207982502 -3.1214069868 -0.0944739876
S 0.7957861913 1.4083489172 -0.3972566582
C -0.2661440848 1.3894802467 1.0771884456
S -1.0893045289 -0.2019223384 1.3704666532
P -2.1977676305 -0.405063432 -0.4341455619
S -1.2959436735 -1.0996278906 -2.0255434159
O -2.9009504715 1.0162777511 -0.6038672515
C -2.859027236 1.815281592 -1.8054258092
C -2.161861952 3.1360476314 -1.548953661
O -3.3438085936 -1.4080191098 0.0012655774
C -4.5732944164 -1.0629266075 0.6857898394
C -4.3509940698 -0.4146304203 2.0353959552
H 3.6295337622 2.6490387501 -1.4607321393
H 3.4451671447 2.6755014103 0.2993235651
H 5.0164113352 3.0428145074 -0.4274656965
H 4.9040548444 0.7192254005 0.5402106682
H 5.241449654 0.7080656125 -1.2176886444
H 1.5500600213 -2.6440440996 1.3136565617
H 0.9598261201 -3.2847805026 -0.2489459071
H 3.2448233467 -4.1509337943 0.2263754706
H 3.298452199 -3.049156551 -1.1645051515
H 3.8447794022 -2.4964244111 0.4276422363
H -1.0090154584 2.1711308098 0.9433037363
H 0.3425077386 1.5675494097 1.963948431
H -2.3536292308 1.2446114854 -2.5917192411
H -3.9031462258 1.9712639163 -2.084489696
H -1.102669681 2.9798338881 -1.3525358293
H -2.2633362227 3.7584092392 -2.4321556381
H -2.6177553785 3.6438350989 -0.7034779671
H -5.1513341639 -0.4071242396 0.0313238796
H -5.07750232 -2.0259067037 0.7817461811
H -5.30999956 -0.3044356787 2.5324296308
H -3.6979368265 -1.0290644231 2.6504124354
H -3.8987705604 0.566884958 1.9152847082
*
