! pbe def2-sv(p) def2/J RI DEFGRID1 loosescf d4 GCP(DFT/SV(P)) printgap
%output
    printlevel normal
end
* xyz 0 1
C 5.786861484 -0.4499616962 -0.7714050781
C 4.4958780513 0.3416188253 -0.7239963926
O 3.4699553827 -0.5169095479 -0.1829758761
P 2.106467462 0.086468969 0.3624041993
S 2.2885847706 1.5141565261 1.6828524935
O 1.3677012879 -1.1864008619 0.9253945492
C 1.3071526793 -2.4469403158 0.2101124403
C 2.371200382 -3.3958183771 0.7176148718
S 1.110866217 0.6244988074 -1.4485477603
C -0.0748850388 1.7879622834 -0.7134083737
S -1.0070763168 1.1111075443 0.6834625908
P -2.3879244363 -0.0900463217 -0.4246011958
S -1.6773959879 -1.5212633336 -1.5480949713
O -3.2503925951 0.9280075727 -1.265450591
C -4.1457553432 1.9202951008 -0.6953376936
C -3.523507538 3.3020420897 -0.7365482543
O -3.4023975017 -0.5659967073 0.7049375165
C -3.1946204138 -1.7714687282 1.4610692652
C -2.1318551317 -1.5960963994 2.5275263896
H 6.0703916539 -0.7621478614 0.2298259634
H 5.6610652099 -1.3305731151 -1.3947993635
H 6.5709084534 0.1745675337 -1.1865729424
H 4.1828946934 0.6585886818 -1.7225368052
H 4.5869070455 1.2220007545 -0.0793245764
H 0.3027421303 -2.8303510261 0.4014545915
H 1.4120683103 -2.2567686704 -0.8615058582
H 2.2647620765 -3.5325002917 1.7902194377
H 2.2557580195 -4.3527170509 0.2185052298
H 3.3604626104 -2.997267066 0.5096377096
H -0.7527322042 2.0792556396 -1.5133842845
H 0.4704510626 2.6439463086 -0.3180283911
H -5.0341889894 1.8693634311 -1.3268004638
H -4.4004716082 1.6264416574 0.3236642653
H -3.200130501 3.5379770182 -1.7470165494
H -4.2673146935 4.02906806 -0.4257159836
H -2.6712829947 3.3640028742 -0.0640921883
H -4.1711335638 -1.9769408905 1.9020724536
H -2.9247466092 -2.5735665444 0.7660003947
H -2.0803416946 -2.4951100392 3.1333697244
H -1.1568846693 -1.4212286638 2.0739762764
H -2.3704574687 -0.7471834533 3.1633013733
*
