! pbe def2-sv(p) def2/J RI DEFGRID1 loosescf d4 GCP(DFT/SV(P)) printgap
%output
    printlevel normal
end
* xyz 0 1
C 3.0386442962 0.3602040898 -3.2557637443
C 3.3202412093 0.8568872646 -1.8519209659
O 2.8817638239 -0.1459139919 -0.9088708798
P 2.0285505965 0.1487026055 0.386110431
S 1.0290563378 1.8481003982 0.378129334
O 3.1425369366 0.1381136431 1.5236209146
C 2.9034269997 0.6307985696 2.8514942813
C 1.9180900837 -0.2384644731 3.6064253572
S 1.1490200642 -1.7511006167 0.624410502
C 0.4402607107 -2.003018966 -1.0366903896
S -0.3379299524 -0.5315186551 -1.7694629287
P -1.8196318196 0.0457829168 -0.3700885993
S -1.6546998383 -0.1078916673 1.5803649872
O -3.1410454131 -0.6636180677 -0.9204069538
C -3.829499935 -1.7306865028 -0.2522565026
C -3.0709806647 -3.0401130662 -0.3383786879
O -1.9589456647 1.4985200822 -0.9806086994
C -2.49310501 2.6077403854 -0.2364017006
C -3.9751685 2.4468092991 0.032449395
H 3.4016709759 1.0925780777 -3.9693401201
H 3.5439970852 -0.5863417704 -3.4233730197
H 1.9687983518 0.2221806343 -3.3968326527
H 2.7899673324 1.7930631369 -1.6456651116
H 4.3890019582 1.0015212764 -1.6824503248
H 3.8899188089 0.6225554075 3.3167563326
H 2.5331332659 1.6589470005 2.7781396588
H 2.2435948862 -1.2757409305 3.5971203096
H 1.8396665358 0.1080978754 4.6317921196
H 0.9322154814 -0.178835892 3.1425060156
H -0.2759056807 -2.8156686108 -0.9405615261
H 1.2394332209 -2.2692390075 -1.7255716964
H -3.9829102869 -1.448640427 0.7941671494
H -4.788606333 -1.7853052616 -0.7687816137
H -2.1637653798 -2.9769848248 0.2623558108
H -3.6904597125 -3.8403665366 0.053872883
H -2.814644477 -3.2584631277 -1.3722926746
H -1.9291663229 2.7006637775 0.6981336589
H -2.2842261271 3.4709878349 -0.8700481087
H -4.353858523 3.3478391487 0.5045272356
H -4.5066100873 2.2724488288 -0.8995624354
H -4.1410822923 1.6009319182 0.69889776
*
