! pbe def2-sv(p) def2/J RI DEFGRID1 loosescf d4 GCP(DFT/SV(P)) printgap
%output
    printlevel normal
end
* xyz 0 1
C 3.0250434947 -3.1718455198 -0.7929493586
C 3.5952624347 -2.1211094734 -1.7197402699
O 3.8285098115 -0.8523896035 -1.0565892066
P 2.7817420508 -0.022149704 -0.2320873465
S 3.3144487736 1.8520619672 -0.034188366
O 2.7282849822 -0.8279594654 1.1399797157
C 2.0891906074 -0.3408745145 2.3323667827
C 0.8549463061 -1.16678603 2.6391729462
S 0.9245095331 -0.334966986 -1.2514822283
C 0.2354657449 1.3207618311 -1.0734589043
S -0.5989672886 1.5744550788 0.5188576324
P -2.3226970183 0.4553673617 0.0430826336
S -3.0326099101 0.6744621995 -1.7766087982
O -3.3448093319 0.8172879963 1.2032818084
C -4.1353147572 2.0226157139 1.1857066442
C -5.3668738648 1.7857994337 2.0365686632
O -1.8849995081 -1.0035367955 0.454602598
C -2.4975301928 -2.2034711868 -0.0766461228
C -1.4047612687 -3.1768395671 -0.4689710902
H 3.6644178676 -3.2932984412 0.0773041238
H 2.0300446754 -2.8788369224 -0.4639717906
H 2.9565184415 -4.1150008119 -1.326055595
H 2.9266292302 -1.9417150287 -2.5653726337
H 4.5870141021 -2.3949311328 -2.0825175318
H 2.8361661051 -0.4432135336 3.1225291201
H 1.8443631905 0.7197157972 2.209799755
H 0.114245472 -1.0620343042 1.8502240449
H 1.1253602817 -2.2146738131 2.7337111319
H 0.4208039502 -0.8216986038 3.5719741975
H -0.4870160816 1.4564458056 -1.8787041538
H 1.0413099822 2.0546321754 -1.1260047653
H -3.5228077085 2.8348821359 1.5853989239
H -4.4034177523 2.2511758655 0.1484966698
H -5.0720935158 1.5188852884 3.0471896195
H -5.9617654119 2.6928570682 2.0621814467
H -5.9613267757 0.9787495192 1.6175868711
H -3.1325679204 -2.6070455526 0.7140726895
H -3.1149118028 -1.9326572603 -0.9393560084
H -0.7805565021 -3.4027149284 0.3907146864
H -1.8602167977 -4.0922734846 -0.8321499989
H -0.7865159032 -2.7473985329 -1.2536314746
*
