! r2scan-3c def2/J RI DEFGRID2 scfconv6 printgap
%output
    printlevel normal
end
* xyz 0 1
C 4.6247011238 -3.2656641534 -2.2081430898
C 3.593342867 -3.6712998413 -1.1671679675
O 3.2658144283 -2.5634177816 -0.3057786838
C 2.3222505436 -1.7266412643 -0.6902717715
O 1.6780047102 -1.8316940292 -1.709364935
C 2.1499719279 -0.6048462418 0.3179666435
C 0.8081587356 0.0827003827 0.1234059498
H 0.6550119133 0.2842766775 -0.9451386266
C 0.6690267301 1.4002695075 0.8607885658
O -0.3329296338 1.6912749184 1.4817013101
O 1.7230792909 2.1583229438 0.7243930563
C 1.6745314258 3.4989604161 1.2615068944
C 1.0629712104 4.4519367 0.2482440644
S -0.5579368177 -1.0009828095 0.6643947626
P -2.1698359275 0.2773151792 0.131980311
S -1.844401032 1.6483901421 -1.225816796
O -3.2512767962 -0.8143597064 -0.3514538747
C -3.0746927401 -1.5390076762 -1.57003514
O -2.9120806352 0.8031946413 1.4206596523
C -3.2651910036 -0.0595689194 2.5192194703
H 4.2096024271 -2.5102651284 -2.8715094684
H 5.5095792718 -2.8640796687 -1.7222441021
H 4.9021707809 -4.1345835152 -2.7956269792
H 3.9863248581 -4.4323068509 -0.4930959257
H 2.6756446425 -4.0225224184 -1.6470877892
H 2.9492996536 0.1222702908 0.1569645044
H 2.2475101051 -1.0152484437 1.3228492515
H 1.0900317976 3.4838403441 2.1850216531
H 2.7159002817 3.7454744293 1.4670647286
H 1.0528334738 5.4564024917 0.6577188255
H 1.6390053207 4.4435083593 -0.6727800553
H 0.0409462186 4.1530731234 0.0199915124
H -2.2211156927 -2.2128931742 -1.4865228001
H -2.9154487965 -0.8458788603 -2.3978662544
H -3.99422798 -2.100079751 -1.7138856647
H -3.9868969324 -0.8044616238 2.1884679061
H -3.6988831675 0.6006420206 3.265656139
H -2.3715419383 -0.5470341855 2.9090511448
*
