! pbe def2-sv(p) def2/J RI DEFGRID1 loosescf d4 GCP(DFT/SV(P)) printgap
%output
    printlevel normal
end
* xyz 0 1
C 4.6327222434 -1.5260063925 -1.1262794701
C 4.6863525167 -0.0877378676 -0.6534982553
O 3.5775494569 0.2425319932 0.2009232739
P 2.0801430784 0.3308434736 -0.3349534363
S 1.9426093565 1.1047101068 -2.1359892023
O 1.3972635902 1.1041317865 0.8666675943
C 1.5608681234 2.5297039034 1.0261069732
C 0.7889775549 2.9428264824 2.260757322
S 1.3040686473 -1.5910617464 -0.0279571379
C -0.0103697377 -1.627419941 -1.3004475857
S -1.6543140692 -1.8833869175 -0.603414774
P -1.9236551486 0.0284609824 0.2898032142
S -1.3506543934 1.5711751754 -0.7735326871
O -1.2044431117 -0.0193068252 1.6907883645
C -1.1417177366 -1.1462219434 2.6000731877
C -2.5067858992 -1.6782888403 2.976615571
O -3.4623626492 0.0539337585 0.686336611
C -4.4908083577 0.5007520592 -0.2124783237
C -4.6799317057 -0.4388587361 -1.3860349102
H 3.7873471173 -1.6627087074 -1.7993347802
H 5.5479906509 -1.7618764026 -1.659455403
H 4.5218367322 -2.1988470485 -0.279728349
H 4.6788120258 0.5977455902 -1.5070424185
H 5.5611877305 0.1014270246 -0.0300527881
H 2.6278924499 2.7485556228 1.1214364476
H 1.1708788017 3.0198165085 0.1271075671
H 0.8733432138 4.0166204352 2.3918523151
H -0.2583152237 2.675338077 2.1410941762
H 1.1854434104 2.4344475665 3.1346726293
H 0.1765873583 -2.4779408108 -1.9506023908
H 0.0213843138 -0.6876584167 -1.8589064743
H -0.5303206816 -1.9267185701 2.137664393
H -0.6148866019 -0.7350320007 3.4624457456
H -2.993962415 -2.1174546916 2.1086643348
H -2.3871660578 -2.4418514353 3.7390908502
H -3.1309112166 -0.8769610058 3.3631990929
H -5.381717778 0.5446544196 0.4155570873
H -4.2326766706 1.5054372245 -0.5624409984
H -5.5556715158 -0.1339701073 -1.9499393475
H -3.8105367636 -0.3994001337 -2.0402660269
H -4.811530093 -1.4598881751 -1.0374755486
*
