! pbe def2-sv(p) def2/J RI DEFGRID1 loosescf d4 GCP(DFT/SV(P)) printgap
%output
    printlevel normal
end
* xyz 0 1
C 3.2768903772 -1.6967109832 1.6293181153
C 2.9569631706 -2.3120462876 0.2776225346
O 2.7187236434 -1.2694106199 -0.6879707574
C 1.5213453952 -1.104562726 -1.2018607168
O 0.5506495684 -1.7909175485 -0.9403691149
C 1.486163352 0.0588193181 -2.1702635338
C 0.3695291995 1.0357608009 -1.7965793114
H 0.3295717242 1.8435246873 -2.5325646652
C 0.5571729961 1.6400346095 -0.4183986575
O -0.362761266 1.7222213637 0.3763878637
O 1.7803104058 2.0204430475 -0.1940751209
C 2.1007615507 2.5887997703 1.0962324748
C 1.760099711 4.0684798282 1.1382699257
S -1.2958907928 0.2819403984 -1.8374965672
P -1.5794306531 -0.4226545008 0.1426913969
S -0.3954438106 -0.8253160164 1.67162841
O -2.8806666316 0.381198206 0.6402490087
C -2.8989584656 1.4152292003 1.620384153
O -2.3205783457 -1.7327070906 -0.4051653413
C -2.8658030589 -2.7171628445 0.4734524081
H 2.4036656152 -1.1764912841 2.0188481663
H 3.5498743463 -2.4841235507 2.3235999652
H 4.1013626313 -0.9966043024 1.5338416595
H 2.0699196736 -2.9487932762 0.335264645
H 3.8053164971 -2.8788876753 -0.1105392114
H 1.2809125632 -0.333389519 -3.1670788471
H 2.4500281052 0.5664760875 -2.1525369767
H 1.5547846989 2.0346852341 1.865082216
H 3.172778623 2.4217479265 1.197081556
H 2.2719646814 4.5936008537 0.3368457857
H 0.6874232597 4.2118264211 1.0312606459
H 2.0741905052 4.4774257151 2.0926978907
H -3.8888313071 1.3817378799 2.069794293
H -2.7213137743 2.3764348862 1.1419350559
H -2.1290748658 1.2317424841 2.37205096
H -2.1505458901 -2.9537714319 1.2646368549
H -3.0497157407 -3.5929293217 -0.1438036908
H -3.7941843023 -2.3513019326 0.9128626056
*
