! pbe def2-sv(p) def2/J RI DEFGRID1 loosescf d4 GCP(DFT/SV(P)) printgap
%output
    printlevel normal
end
* xyz 0 1
C 4.0511758805 -4.0357504118 -0.8531597613
C 2.645588066 -3.5115487139 -0.6373885384
O 2.7034738367 -2.069812554 -0.6497798569
C 1.6142210806 -1.4034090528 -0.3636358036
O 0.5491068839 -1.9272710745 -0.0952794054
C 1.8374353376 0.0892229466 -0.3689557439
C 0.8346545289 0.8585587319 -1.2514261968
H 1.2828439459 1.0947231191 -2.2177610783
C 0.4396193173 2.1438292949 -0.5371966237
O -0.6767118196 2.3525886022 -0.1171778848
O 1.4597012094 2.9545338439 -0.4205520467
C 1.2846380953 4.1637896634 0.3508948979
C 1.5012798454 3.8866495104 1.8296524407
S -0.7022625152 -0.028893694 -1.6942866738
P -1.5910824437 -0.2384741315 0.2009501784
S -0.7302946284 0.0908042749 1.9401214722
O -2.863694471 0.6789451548 -0.1072741746
C -3.8283109287 0.9810699395 0.903179624
O -2.3441622622 -1.654029167 0.1582691563
C -1.9366744863 -2.854481196 0.8094150063
H 4.0323572043 -5.1203705004 -0.8556650371
H 4.4378700943 -3.6814090205 -1.8035783478
H 4.7042076685 -3.6908069735 -0.0573765916
H 2.2310907796 -3.8316710098 0.3234137537
H 1.9654736706 -3.8314780648 -1.4324817029
H 2.8559842191 0.299504363 -0.6892969753
H 1.7136792483 0.4033948582 0.6730460001
H 2.0363056992 4.8462070682 -0.0444389773
H 0.2782239865 4.5504584311 0.1706218748
H 0.7717089973 3.1616003162 2.187814307
H 2.4991795705 3.4913950436 1.996874329
H 1.3821560356 4.807892086 2.3898696748
H -4.4432184165 0.1043513313 1.1085496791
H -4.4313916554 1.7898421197 0.4987653285
H -3.3246885715 1.303443018 1.8169614322
H -1.3468725488 -3.4569153537 0.1223941089
H -2.8531003423 -3.368400552 1.0914630651
H -1.3411005504 -2.6183168877 1.6928216787
*
