! pbe def2-sv(p) def2/J RI DEFGRID1 loosescf d4 GCP(DFT/SV(P)) printgap
%output
    printlevel normal
end
* xyz 0 1
C 4.4258795637 -1.6364754613 -0.8314006197
C 4.6248468118 -0.135962745 -0.7718483045
O 3.5882131871 0.5318698079 -0.0307124956
P 2.0723988051 0.5725849908 -0.5180540988
S 1.8467641696 0.7245330528 -2.4571423854
O 1.5278415871 1.8214430186 0.278060345
C 2.0165054793 2.2849613522 1.5596052652
C 1.7451362528 1.292237828 2.6696938712
S 1.2307769837 -1.1797509204 0.3584925915
C 0.1336458983 -1.7420827868 -0.9790268235
S -1.5698652128 -1.9951221491 -0.4326003031
P -1.992508812 -0.0055528786 0.1913984835
S -1.3751766934 1.4393295333 -0.9775609676
O -1.3927295808 0.1061066098 1.6466638659
C -1.734426666 -0.8179468214 2.7150309466
C -2.761484263 -0.2005935128 3.6409337787
O -3.5570628537 -0.0383180798 0.4712033292
C -4.5377308835 0.2262896843 -0.5470528254
C -4.5414257108 -0.8279670328 -1.6347975816
H 3.5559250591 -1.8698123947 -1.4433276609
H 5.30202999 -2.0927787849 -1.2806883757
H 4.2773197903 -2.0417996276 0.1661089618
H 4.6509496787 0.2863221803 -1.7810501105
H 5.5359098888 0.1288316259 -0.2332072957
H 3.0844863644 2.4913344095 1.4647854957
H 1.4673481625 3.2162590357 1.7088131081
H 0.6840970036 1.0576847768 2.7017372265
H 2.3062451023 0.3744874338 2.4998485082
H 2.0478841243 1.7264786662 3.6173358061
H 0.4790453595 -2.7122944873 -1.3272989956
H 0.1656861159 -1.0006297975 -1.7828468604
H -2.1053610395 -1.7470465306 2.2744372371
H -0.790158122 -1.0090041437 3.2290351155
H -2.3941516616 0.7436970168 4.0333732119
H -3.6896259371 -0.0199836072 3.1053952914
H -2.9489225888 -0.8824265973 4.4643979833
H -5.4813872306 0.2425521999 0.0002279241
H -4.3350657433 1.214844772 -0.9704984549
H -3.6232330319 -0.765737571 -2.2171378581
H -4.615882805 -1.8217052438 -1.2003182441
H -5.3857738754 -0.657365026 -2.2949928572
*
