! pbe def2-sv(p) def2/J RI DEFGRID1 loosescf d4 GCP(DFT/SV(P)) printgap
%output
    printlevel normal
end
* xyz 0 1
C 4.3779095825 0.9715093244 -1.3856060246
C 4.1789736982 -0.3633160477 -2.0844568891
O 2.8524611969 -0.879532439 -1.8617138389
C 2.6116666841 -1.5457662595 -0.7513566881
O 3.4327346804 -1.7902215849 0.1029443163
C 1.1608114212 -1.9952910877 -0.6872595265
C 0.2494584937 -0.7718438179 -0.5728398749
H 0.40264891 -0.101312295 -1.4215832375
C 0.5428224279 -0.0372798486 0.7223727105
O -0.1614649943 -0.1267878747 1.7067307124
O 1.6534020972 0.6472943807 0.6382770766
C 2.1093306818 1.3446584371 1.8163278892
C 2.794737575 0.3931791848 2.7835860958
S -1.4942429979 -1.3030142427 -0.5375293871
P -2.341792842 0.5369725092 0.0899306799
S -1.3020170525 2.1458443217 -0.312687135
O -3.7660775709 0.4885409787 -0.6446017055
C -3.8729557702 0.5902891476 -2.0690232259
O -2.8212629107 0.4657649061 1.5900312004
C -3.494260416 -0.6841005572 2.1406599173
H 5.3454128518 1.3792736489 -1.6591563179
H 3.5967186834 1.6683138108 -1.677904323
H 4.3408305107 0.836268307 -0.3079467917
H 4.9031568454 -1.0994443572 -1.7238327489
H 4.2471464331 -0.2597060401 -3.1673839424
H 1.0280169019 -2.649711413 0.174870335
H 0.9118910002 -2.5344510225 -1.6016942433
H 2.7983269051 2.0948211478 1.4285528536
H 1.2468996483 1.8299304634 2.2826833961
H 3.2697947457 0.964702413 3.5735933712
H 2.0671253072 -0.2847571879 3.223657009
H 3.5445451334 -0.1960303848 2.2598347429
H -4.9303577008 0.7381667711 -2.2723036224
H -3.5151017583 -0.3282579895 -2.5336305377
H -3.293058493 1.4421499464 -2.4274990739
H -3.8421495257 -0.3643369323 3.1192900005
H -2.7840328539 -1.5049567395 2.2366486391
H -4.3292962334 -0.9720897899 1.5046152549
*
