! pbe def2-sv(p) def2/J RI DEFGRID1 loosescf d4 GCP(DFT/SV(P)) printgap
%output
    printlevel normal
end
* xyz 0 1
C 1.0809842663 -2.2087650771 1.8141203874
C 2.1571888713 -2.203554077 0.7455317079
O 2.853516712 -0.9456494566 0.7463790432
P 2.7234997912 0.1392952698 -0.412808938
S 2.9244561322 -0.5975781343 -2.2159288206
O 3.8793343088 1.1394466789 -0.0510958694
C 3.8563903357 2.1427233417 0.9952885341
C 3.5302987546 1.5644186859 2.354627761
S 0.9243218116 1.2476711155 -0.0751125223
C -0.0390018257 0.622343934 -1.4663747799
S -0.8418805943 -0.9687938571 -1.1231239915
P -2.4134805003 -0.1650304517 0.029797575
S -3.2790246371 1.465189088 -0.6478832417
O -1.6870436799 -0.0581022109 1.4322364037
C -2.2234255334 0.7285358675 2.5229123383
C -1.5452168076 2.0826188279 2.5814856904
O -3.4121419921 -1.3739416835 0.2913191472
C -4.5110739095 -1.6734331697 -0.5857910924
C -4.0386255446 -2.2010097064 -1.9251894254
H 1.5222637463 -2.0061383085 2.7857962341
H 0.326165247 -1.4542644389 1.6057591946
H 0.6036918471 -3.183240206 1.8311972276
H 1.7379036936 -2.3887129092 -0.2494179015
H 2.9212923178 -2.9553376582 0.9544331157
H 4.8654563582 2.5561124182 0.9625342217
H 3.1307408588 2.9096507549 0.7129052729
H 3.6168876684 2.3462764137 3.1028028523
H 2.5130158533 1.1780450264 2.3614393092
H 4.2159209966 0.7561083347 2.5945643073
H 0.6239784029 0.4614824479 -2.3178913372
H -0.8040695672 1.3670339549 -1.6879537568
H -3.3036818703 0.8356483193 2.3933081264
H -2.0177233357 0.136939802 3.416099298
H -1.7723124881 2.6558251487 1.6851836844
H -1.9034603598 2.6253166894 3.4501520271
H -0.4680011699 1.9602388272 2.6474677663
H -5.0881504195 -2.4199446775 -0.0385428948
H -5.1068430095 -0.7644221472 -0.718405547
H -3.3610348157 -3.0392674761 -1.7834247717
H -4.8951839573 -2.5234578855 -2.5084314666
H -3.5150995142 -1.4172510126 -2.4716506479
*
