! pbe def2-sv(p) def2/J RI DEFGRID1 loosescf d4 GCP(DFT/SV(P)) printgap
%output
    printlevel normal
end
* xyz 0 1
C 4.6063767458 -1.051455395 -1.9024928546
C 3.8195720058 -2.0984711736 -1.1414284317
O 3.1832021537 -1.5741435681 0.03776823
P 2.2512758769 -0.2906482145 0.095958153
S 3.1188595988 1.4738157731 0.0987759159
O 1.4112401225 -0.601296481 1.4062371884
C 1.7323688709 -0.0143793056 2.6821105027
C 2.9922945006 -0.6239369786 3.2589532802
S 0.8212769016 -0.6398186009 -1.4246730445
C 0.1210739265 1.0312766033 -1.4144819009
S -0.7913018349 1.410628024 0.096869993
P -2.6387744325 0.429774595 -0.3716702069
S -2.8865198149 0.0369198392 -2.2736844344
O -3.7909750263 1.3792666265 0.1237376163
C -4.1781446854 1.6122732187 1.5001349881
C -3.0795566642 2.26800412 2.3092133844
O -2.7620937795 -0.764786893 0.6762934913
C -1.848472998 -1.8636483972 0.8241717616
C -1.9362445136 -2.8497285339 -0.3230457287
H 3.9346922939 -0.2918861027 -2.3010187876
H 5.3258471522 -0.5651351641 -1.2477917523
H 5.1322678999 -1.5232585814 -2.7263163499
H 4.4715754737 -2.8832662192 -0.7536291696
H 3.046303209 -2.5388960767 -1.7771725472
H 1.8454630585 1.0667530191 2.551348174
H 0.8582473779 -0.2226242132 3.3000878191
H 3.181032784 -0.2060140496 4.2426533159
H 2.8879989055 -1.7028904895 3.3340502328
H 3.8363546078 -0.3983305191 2.6078240666
H -0.5528099107 1.0911544925 -2.2699293609
H 0.9289825252 1.7597837194 -1.4822929232
H -5.0486866627 2.2629396023 1.4044239412
H -4.4732958543 0.6571809497 1.9379887595
H -3.4575375704 2.4986892263 3.3003947838
H -2.2253058623 1.5995034046 2.4031025714
H -2.749666324 3.1857759625 1.8290471914
H -0.8311684533 -1.4733271324 0.9259259972
H -2.1548222547 -2.3261790735 1.7647298703
H -1.2993785397 -3.7020518753 -0.1091283172
H -2.9615521586 -3.1871432553 -0.4510293824
H -1.6048559627 -2.3882978632 -1.2514103816
*
