! pbe def2-sv(p) def2/J RI DEFGRID1 loosescf d4 GCP(DFT/SV(P)) printgap
%output
    printlevel normal
end
* xyz 0 1
C 1.7382593241 3.2914751792 0.4802513544
C 2.3293265116 1.994934031 -0.0312106193
O 2.3172852506 1.0539014255 1.0725742801
P 2.5620625319 -0.4930664155 0.9152763386
S 2.5094831697 -1.3946044788 2.6484542235
O 3.940288675 -0.5429948038 0.1250496327
C 4.7681764774 -1.7196453036 0.073510529
C 4.0851798791 -2.8750416066 -0.6283548404
S 1.1222567404 -1.1573025657 -0.5162876182
C -0.2759935778 -1.1273993222 0.6341272384
S -1.0516459833 0.504068937 0.7730369186
P -2.425416363 0.1915917836 -0.8399813596
S -1.6832640995 -0.4165171171 -2.5416522942
O -3.2721271342 1.5331926403 -0.8835159093
C -2.9047489827 2.6429519736 -1.7253272267
C -1.595105505 3.2689350654 -1.2957310982
O -3.4370075697 -0.8662818305 -0.2450488658
C -4.2505402017 -0.6302376618 0.9318193145
C -5.6260354803 -0.1274609581 0.5447637049
H 0.733902014 3.1146440539 0.8553461133
H 2.3479440414 3.6828867791 1.2890872685
H 1.70221579 4.0130946016 -0.3291337852
H 3.3627152867 2.1177933868 -0.3602893999
H 1.7405262322 1.5754263771 -0.8530679006
H 5.655765271 -1.387055475 -0.4666673858
H 5.0357412018 -1.9964386364 1.0977275701
H 4.7922053708 -3.6892298111 -0.7507972337
H 3.243156988 -3.2265325802 -0.0333978703
H 3.7188511454 -2.5644446062 -1.6040628991
H 0.0824127552 -1.407732965 1.6263056619
H -1.0083074272 -1.8430188567 0.2640800375
H -2.8408721744 2.2849695724 -2.7572625726
H -3.7394375154 3.3374640762 -1.6216133816
H -1.4080489834 4.1576967711 -1.8894264282
H -1.6326393259 3.5375233906 -0.243079624
H -0.7822718236 2.5614842516 -1.4533504315
H -4.3084238567 -1.6040297662 1.421981378
H -3.7359295101 0.0823892953 1.582175468
H -5.5525921235 0.8457986467 0.0677673714
H -6.0950761278 -0.8228918692 -0.1459360902
H -6.236218043 -0.0437138991 1.4387183972
*
