! pbe def2-sv(p) def2/J RI DEFGRID1 loosescf d4 GCP(DFT/SV(P)) printgap
%output
    printlevel normal
end
* xyz 0 1
C 3.029906885 -2.955691459 -1.3892953528
C 4.0713148279 -2.1309384133 -0.663520453
O 3.8050641382 -0.709100023 -0.7415420629
P 2.5724818812 0.0416889066 -0.1146321693
S 2.9573114867 1.960311898 -0.0186129351
O 2.3845517583 -0.7668980576 1.2456144583
C 1.2723440357 -0.6442422336 2.1474043701
C 1.3115164978 0.6480157143 2.9383323219
S 0.8602555492 -0.4641150311 -1.3000363916
C 0.0953270712 1.1650155312 -1.3996274339
S -0.8276114348 1.6225477086 0.0915043546
P -2.4426806443 0.3001953249 -0.2103992082
S -3.0707029883 0.035894273 -2.0409106758
O -3.6222890086 0.8390765106 0.7027021017
C -3.5000922953 1.0410490525 2.1328642238
C -3.2130526541 2.4940853315 2.453455402
O -1.8702346543 -0.9987683851 0.536599107
C -2.410004139 -2.316013211 0.2852242585
C -1.4708440883 -3.1123683152 -0.5975497109
H 2.9362829558 -2.6276669405 -2.4212755188
H 3.3265423954 -3.999740985 -1.3710340103
H 2.0601863747 -2.8543644135 -0.9051803928
H 5.0532531919 -2.2243347275 -1.1298737654
H 4.131801224 -2.4100610314 0.3897771315
H 0.3416467676 -0.7264203063 1.5777207223
H 1.3766763879 -1.5111729529 2.8031822615
H 0.5156222453 0.641468273 3.6761445625
H 2.2688786977 0.749228496 3.4429191873
H 1.1753224873 1.5037367004 2.27989869
H -0.588629467 1.1421060616 -2.2480921367
H 0.8699477562 1.9226608716 -1.5234356283
H -4.4691006127 0.7340316613 2.5303560954
H -2.7145656731 0.3871289062 2.5192482763
H -3.9701394595 3.1303801609 2.0036795617
H -3.2264412181 2.6284482587 3.53046035
H -2.2376878026 2.7868334369 2.0705148576
H -2.516384502 -2.7728728272 1.2707120535
H -3.393602537 -2.2175266839 -0.1837238096
H -1.8719943224 -4.1108562939 -0.7368158591
H -1.3692414818 -2.6293920721 -1.5669882356
H -0.4890995455 -3.1782102255 -0.1376272343
*
