! pbe def2-sv(p) def2/J RI DEFGRID1 loosescf d4 GCP(DFT/SV(P)) printgap
%output
    printlevel normal
end
* xyz 0 1
C 5.3976782994 0.8837927729 0.937047776
C 4.8004884245 0.4248551292 -0.3794676895
O 3.7393905568 -0.5283651295 -0.1652752457
P 2.215405044 -0.1030207716 -0.0324591591
S 1.7774613694 1.1798978337 1.3886301497
O 1.4957423643 -1.5087558453 0.0600577372
C 1.1955897643 -2.1334592523 1.3214531748
C 2.452353555 -2.6055401217 2.0199037753
S 1.7364387106 0.4965181251 -1.9968357363
C 0.0152286584 0.9584452154 -1.709851868
S -1.073465866 -0.5210498593 -1.7253595518
P -2.3523976431 -0.058586659 -0.1261487118
S -3.8194024439 -1.3259851676 0.1523628443
O -2.821296691 1.4568193016 -0.3248453896
C -4.0500029564 1.7790598286 -0.9978605705
C -3.942129894 1.5694645659 -2.494605214
O -1.278138438 0.1097747076 1.0320750203
C -1.6217410039 0.6754375898 2.3200808646
C -2.1460631169 -0.3797603076 3.2721849149
H 5.7594817818 0.0293709132 1.5024015493
H 6.2248663204 1.5573158446 0.7377284708
H 4.6508997266 1.4070487317 1.5302355855
H 5.5331972462 -0.1168959289 -0.9802541588
H 4.4138369688 1.2711153763 -0.9540718697
H 0.651928952 -1.4136621305 1.9417559224
H 0.5349927834 -2.9606499926 1.0556230675
H 2.1836519542 -3.1515283661 2.9188533233
H 3.0267728836 -3.2505149741 1.3602727128
H 3.0639133029 -1.7462899919 2.2931573064
H -0.2718659975 1.6064016098 -2.5331105644
H -0.0728480557 1.4610532697 -0.7464560225
H -4.8466352639 1.1550154259 -0.5800482327
H -4.2247752861 2.826045582 -0.7466508473
H -4.872032416 1.8709765297 -2.9658434384
H -3.1253347862 2.1573809086 -2.9046975355
H -3.7638712059 0.5160658858 -2.7089792158
H -0.6833539595 1.1085716045 2.6756467679
H -2.3543004121 1.4712717083 2.1698752178
H -3.0651156027 -0.8165731182 2.8869282856
H -1.4132206233 -1.1716816326 3.4033742486
H -2.3472337558 0.0827571836 4.2333012238
*
