! pbe def2-sv(p) def2/J RI DEFGRID1 loosescf d4 GCP(DFT/SV(P)) printgap
%output
    printlevel normal
end
* xyz 0 1
C 4.4507867496 -2.0656143985 0.3689175614
C 4.8331560483 -0.915766768 -0.5392171799
O 3.7032928136 -0.3737412849 -1.2658588813
P 2.4464646909 0.3485247369 -0.6425190795
S 1.6019596319 1.4197395481 -2.0518957019
O 3.1010722186 1.0696674223 0.6102692584
C 2.406022444 1.831594197 1.6125202083
C 2.1468309488 3.2514234148 1.1521505819
S 1.2036866151 -1.1524278641 0.2152846411
C -0.0366534359 -1.288554615 -1.115284854
S -1.658485617 -1.7618802658 -0.4960108205
P -2.3726829748 0.1274508813 0.2092475883
S -1.0199983273 1.4911574203 0.5831238126
O -3.3261201441 -0.2383856762 1.4262449928
C -2.834499159 -0.359366763 2.7742806665
C -1.8862492332 -1.5289525526 2.94174048
O -3.3936136659 0.6396498349 -0.8814919494
C -4.759825642 0.1852269188 -1.0398529579
C -4.8547697257 -1.2914335123 -1.3595825155
H 3.8003942719 -1.7194714343 1.1698505168
H 3.9314091932 -2.8376279632 -0.1928011677
H 5.3531334493 -2.4854828028 0.8024834
H 5.5038073385 -1.2401194165 -1.3366509372
H 5.29422258 -0.1048665798 0.0270650877
H 1.4661606014 1.3330488629 1.8617595557
H 3.0790640013 1.8088381834 2.471731656
H 1.4417950289 3.2526740075 0.3227473364
H 1.7172941882 3.8193574417 1.9707451739
H 3.0724477279 3.7198859863 0.8283569752
H 0.2665352091 -2.0791772148 -1.7970596225
H -0.0901600565 -0.3238389543 -1.6277704502
H -2.340089166 0.5790180421 3.0439100498
H -3.7406983212 -0.4872664173 3.3681419669
H -1.6429492775 -1.6419337428 3.9932467138
H -2.3431638815 -2.4449587317 2.5764595006
H -0.965453909 -1.3515231818 2.3866605739
H -5.3030463839 0.4216866513 -0.1230101323
H -5.1306175365 0.8003276171 -1.861429334
H -4.4856867465 -1.8839590387 -0.5245610269
H -5.8943719975 -1.5448866106 -1.5426936382
H -4.2678019784 -1.529256721 -2.2429607924
*
