! pbe def2-sv(p) def2/J RI DEFGRID1 loosescf d4 GCP(DFT/SV(P)) printgap
%output
    printlevel normal
end
* xyz 0 1
C 5.1591675929 -0.2253560579 -2.1101477516
C 4.9474383694 -0.1133157172 -0.6141436028
O 3.8992948118 0.855235416 -0.3350311449
P 2.4985222282 0.4617720483 0.2562376242
S 1.3087391179 2.0021497185 0.4189648899
O 2.925500364 -0.2171454228 1.6319458514
C 2.0006747175 -0.5990959144 2.667104644
C 1.649304949 -2.0710122776 2.5728841081
S 1.8075973353 -1.1361241277 -1.0018063159
C 0.1165440832 -0.5786492106 -1.2150974011
S -0.886416279 -0.9185116978 0.2729995188
P -2.6310100183 0.0462167584 -0.4569099435
S -2.9269288325 -0.1190455318 -2.3833531997
O -2.5143361881 1.5719178527 -0.0794168566
C -2.3897768804 2.0435273348 1.2856164474
C -1.9876093841 3.5016099374 1.2359061083
O -3.7647535942 -0.4429163647 0.5434016854
C -4.0214262775 -1.8155175922 0.9031567855
C -4.2251313824 -2.7091278176 -0.3016337824
H 4.2737856849 -0.6351697854 -2.5900066553
H 5.3663007687 0.7546762824 -2.5309364847
H 6.0018695491 -0.8822943668 -2.3002107767
H 5.8336130329 0.2798875916 -0.1139274323
H 4.6728694344 -1.0751068834 -0.1774030805
H 2.52815186 -0.3774684057 3.5968106172
H 1.1079102863 0.0301634281 2.597488284
H 1.0403732643 -2.3429513473 3.4285936035
H 1.0861161382 -2.2750876951 1.6648423914
H 2.5552681637 -2.6701874104 2.5714782551
H -0.3059343945 -1.1214315143 -2.0589900904
H 0.1060923812 0.4979753553 -1.3964178726
H -3.354714956 1.9052748029 1.7765378972
H -1.6297841952 1.4425624035 1.7935541174
H -1.9532507988 3.8960837548 2.2460028255
H -1.0040921289 3.5998758681 0.7816972479
H -2.7056069424 4.0661853961 0.6483531343
H -3.1836161233 -2.1684434467 1.5107659872
H -4.9243763303 -1.7539210928 1.5129651317
H -5.0122475339 -2.3136890773 -0.939370168
H -3.3083641154 -2.7668228102 -0.8868071829
H -4.496828739 -3.705884824 0.0304417037
*
