! pbe def2-sv(p) def2/J RI DEFGRID1 loosescf d4 GCP(DFT/SV(P)) printgap
%output
    printlevel normal
end
* xyz 0 1
C 4.2369570281 -1.8898813966 1.1638505476
C 2.7874811869 -1.9924897971 0.7343946764
O 2.5812172816 -1.0781434386 -0.3603203253
C 1.4117598409 -1.0628177066 -0.9459894633
O 0.47929061 -1.7862756999 -0.6372287434
C 1.3257569275 -0.0422788148 -2.0574147393
C 0.1725798574 0.9244708513 -1.7988590849
H 0.058238671 1.6002869815 -2.6526067809
C 0.3349751662 1.781394056 -0.551705241
O -0.6056418256 2.3328621091 -0.0178876824
O 1.5810517655 1.8755615455 -0.1737534399
C 1.8771407525 2.6420307247 1.0118633431
C 3.3797741621 2.8216526357 1.082219184
S -1.4596071819 0.1055525483 -1.7074475309
P -1.6433500789 -0.5113871743 0.3261022988
S -0.357090156 -0.1779162182 1.7656977769
O -3.0935733872 0.1010657032 0.6763314881
C -3.3426989718 1.4805581567 0.9384935628
O -2.0518686332 -2.0358285273 0.2960254355
C -2.9709771418 -2.5915858322 -0.6609301163
H 4.4517674101 -0.8846724302 1.5129943157
H 4.4194649855 -2.5921070588 1.9701850633
H 4.8902646909 -2.1221911522 0.3282806475
H 2.0994548785 -1.7193013174 1.5413530622
H 2.5310227739 -3.0001982741 0.3923617852
H 1.132055997 -0.5693882972 -2.9928867773
H 2.2655635137 0.5046780533 -2.1144640515
H 1.3457314887 3.5962110375 0.9483220883
H 1.4884250487 2.0831314308 1.8698393325
H 3.7319524469 3.386346174 0.2243361868
H 3.6320247832 3.3550026447 1.9922622284
H 3.865018843 1.8503813304 1.089225982
H -2.6304407411 1.8614604512 1.6715436153
H -4.3564447476 1.5236029655 1.3285775458
H -3.2525824349 2.0601188792 0.0200109225
H -3.1190011523 -3.6199054358 -0.3415409942
H -2.5283215997 -2.5584222947 -1.6561606961
H -3.9100536062 -2.0405528598 -0.645139009
*
