! r2scan-3c def2/J RI DEFGRID2 scfconv6 printgap
%output
    printlevel normal
end
* xyz 0 1
C 3.9446598975 -0.1007738495 -2.7815187254
C 4.3054426283 -0.604676201 -1.3982320107
O 3.742464819 0.2696983334 -0.3834958702
P 2.5702563662 -0.1560687216 0.5827601796
S 2.2320952847 1.2251116508 1.9223546284
O 3.0730670411 -1.5587177856 1.1411297212
C 2.556397166 -2.1274292908 2.3576740495
C 1.0888442689 -2.4851750303 2.2410641115
S 0.980527235 -0.7149292393 -0.7316591602
C 0.4698457587 0.9697052072 -1.1587909863
S -0.6812041689 1.7007301057 0.0433234421
P -2.2607814595 0.347176021 -0.3162516268
S -2.517525581 -0.2512716159 -2.1688406616
O -3.5289822867 1.0293428367 0.3555400648
C -4.4067644068 1.9095671907 -0.3669766491
C -3.737742278 3.2231412953 -0.7171560216
O -1.9049490372 -0.7769652743 0.7416578334
C -2.3956915405 -2.1286657232 0.6131272894
C -3.8991395257 -2.2020977872 0.7768769578
H 4.4736514889 -0.693086481 -3.5213770923
H 2.8753419598 -0.1914683764 -2.9572506178
H 4.2340910754 0.9413272417 -2.8858162967
H 5.3827799219 -0.5669793895 -1.2310890003
H 3.9432163489 -1.6214254737 -1.2358821183
H 3.1766330495 -3.0107983103 2.5157523392
H 2.7136277772 -1.4088852258 3.1679246586
H 0.9226832106 -3.1185497322 1.3725511562
H 0.7751581134 -3.0086962303 3.1386705893
H 0.4935541463 -1.5777752469 2.1359697262
H -0.0226722698 0.9095338242 -2.1291167227
H 1.3399873919 1.6228748997 -1.1915502711
H -4.7413026155 1.3957060784 -1.2741502746
H -5.248825708 2.0544672008 0.311162468
H -4.4713456066 3.8976441631 -1.1469046071
H -3.3064036445 3.6762086243 0.1722574062
H -2.9432533159 3.0552695636 -1.4431347196
H -2.0911025101 -2.5121602287 -0.3659254994
H -1.8754828783 -2.6714199938 1.4031580763
H -4.2110027386 -3.2417803044 0.7744781806
H -4.1983446918 -1.7343962488 1.7112724495
H -4.3875638577 -1.6845377835 -0.0480805117
*
