  12
        -23.98684528
 C         -0.6919902175       -1.2068776785        0.0000007474
 C          0.6919942014       -1.2068781191        0.0000172519
 C          1.3724953827       -0.0000006958        0.0000046756
 C          0.6920012386        1.2068828297       -0.0000023316
 C         -0.6919859004        1.2068787529        0.0000167918
 C         -1.3724918027        0.0000013764        0.0000477087
 Cl        -3.1096060062       -0.0000001457       -0.0000157317
 Cl         3.1095975853       -0.0000024759       -0.0000102167
 H         -1.2355773346       -2.1371650636       -0.0000580174
 H          1.2355741093       -2.1371626307       -0.0000030452
 H          1.2355945589        2.1371831340        0.0000033316
 H         -1.2355680422        2.1371597280       -0.0000405798
