! r2scan-3c def2/J RI DEFGRID2 scfconv6 printgap
%output
    printlevel normal
end
%cpcm
    smd true
    smdsolvent "water"
end
* xyz 0 1
C 5.4598662579 -2.0090760606 -1.7279395921
C 4.9228144871 -1.0050795928 -0.7203237035
O 3.6512468023 -1.4321116709 -0.1947033009
C 2.5590690858 -1.1059033013 -0.8537802362
O 2.5332252129 -0.4419293572 -1.8661456553
C 1.3210175615 -1.6773750296 -0.1841313091
C 0.2187867781 -0.6285657866 -0.1919393143
H 0.0968414301 -0.2277458286 -1.208073591
C 0.5073076384 0.5535840767 0.709777589
O -0.3755625696 1.1619816872 1.2828804743
O 1.777844677 0.839127288 0.7857533584
C 2.16965998 1.9801708402 1.5834882249
C 3.6820138777 1.9886800192 1.6719635433
S -1.3826234551 -1.3286743763 0.3221612155
P -2.5911004541 0.3953969881 0.0181692815
S -1.9729742825 1.7022291243 -1.3031234741
O -3.969445564 -0.308403752 -0.422575378
C -4.1017898324 -0.9637325807 -1.6863663303
O -3.0628044794 0.9997152049 1.3975514676
C -3.6516340494 0.1865017648 2.431846188
H 6.4476677488 -1.6988906919 -2.0523201888
H 5.5236386303 -2.9951493121 -1.2764447496
H 4.8037368321 -2.0567297624 -2.5940299509
H 4.7954062535 -0.0228052972 -1.1836991888
H 5.5708116418 -0.9344647352 0.1532576429
H 1.5669272658 -1.9955846086 0.8275330006
H 0.9884363676 -2.5434271219 -0.7595297144
H 1.781062237 2.8803611587 1.0980026127
H 1.6983330367 1.8853851284 2.5663259724
H 4.0341039195 1.0694645924 2.1304686822
H 4.1113554541 2.0749203655 0.6781760266
H 3.9984178061 2.8349273201 2.2722933434
H -3.7175285325 -0.3233198429 -2.4822680767
H -5.1669913974 -1.1349461327 -1.8181306172
H -3.5583151212 -1.9084473587 -1.6723865616
H -2.9959021559 -0.6524368685 2.6659486374
H -4.6243637283 -0.1772936392 2.1058207051
H -3.7487613539 0.8486556491 3.2882106774
*
