! r2scan-3c def2/J RI DEFGRID2 scfconv6 printgap
%output
    printlevel normal
end
%cpcm
    smd true
    smdsolvent "water"
end
* xyz 0 1
C 2.061278469 -2.3361061536 2.6032794295
C 1.1274962163 -1.5041639597 1.7470065852
O 1.8746874551 -0.5256536594 1.0037103884
P 2.2439533772 -0.7131404913 -0.5348867006
S 2.7241713886 -2.5289375193 -1.0820014495
O 3.3277113013 0.4223739797 -0.7391203814
C 4.7406126751 0.1609155847 -0.5931822358
C 5.1131025059 -0.117574278 0.847219444
S 0.647943571 0.1426909303 -1.6266246816
C 0.5006038837 1.7361097874 -0.7582950807
S -0.3218449826 1.6210305415 0.8532698991
P -2.1102557438 0.7330377898 0.1662429155
S -2.7833942957 1.3823605757 -1.5616894705
O -3.0673435448 0.8666291774 1.4257491337
C -3.6046396945 2.1285488032 1.8728294868
C -4.9393875661 2.4207122132 1.2149202307
O -1.753866753 -0.8102296384 0.2403877033
C -2.3938895538 -1.7769489151 -0.6140853197
C -3.8349962312 -1.9965317158 -0.2067610081
H 1.4754815815 -3.0127973368 3.2168384345
H 2.725663846 -2.9194851017 1.968919415
H 2.6538697318 -1.6896799576 3.2442647355
H 0.4257808337 -0.9288741643 2.3553473921
H 0.5680130532 -2.1393938446 1.0538413412
H 5.0021102724 -0.6876933 -1.2328632524
H 5.2126520765 1.0695961462 -0.9691292208
H 4.6607760678 -1.0538299277 1.1698330884
H 6.1923279986 -0.1996845839 0.930006968
H 4.7596216123 0.6848594881 1.4894152517
H -0.0929802798 2.3675125935 -1.4185610846
H 1.4885208242 2.1536940451 -0.5862900954
H -3.7121385061 2.0080271936 2.9523777533
H -2.8809855991 2.9218613999 1.6650103126
H -5.6402721446 1.6152588063 1.4158411153
H -5.3373337403 3.3492908889 1.6112054834
H -4.8170392993 2.5186003639 0.138508429
H -2.3272527057 -1.4262959553 -1.6497012684
H -1.7926986371 -2.6802803057 -0.4975528463
H -4.3981825972 -1.0753090149 -0.3526318344
H -4.2697562712 -2.7793217402 -0.8201449426
H -3.8892129578 -2.2802947762 0.8407923867
*
