! pbe def2-sv(p) def2/J RI DEFGRID1 loosescf d4 GCP(DFT/SV(P)) printgap
%output
    printlevel normal
end
* xyz 0 1
C 5.1093835697 -0.8331148373 -2.2824438855
C 3.5976041497 -0.9326468476 -2.2193615681
O 3.1981323436 -0.8910393332 -0.8388101847
P 1.8468004826 -0.2257223693 -0.3219370101
S 1.3955513582 1.3943691208 -1.3383170772
O 2.1127309172 -0.106320789 1.230947927
C 2.6707272589 1.0840093977 1.8243665962
C 4.0828614977 1.3425071662 1.3474627224
S 0.585646225 -1.9314023962 -0.3403096982
C -0.4205087745 -1.8266817733 1.1787848717
S -2.1792221096 -1.5768159328 0.8555257677
P -2.0534973487 0.4944826985 0.4012400322
S -0.7904587152 1.5063146789 1.50132938
O -3.5703632907 0.9614937942 0.3960705608
C -4.5344413728 0.6848631932 1.4318571853
C -4.074037777 1.1387722748 2.8006788725
O -1.6840027178 0.6189393985 -1.1235236585
C -2.4762688619 0.0234722137 -2.1853245316
C -1.5417027283 -0.6297229677 -3.182519946
H 5.4274030591 -0.9183348735 -3.3162664132
H 5.4407507929 0.1219705484 -1.8841993313
H 5.557135083 -1.6327743737 -1.6997117608
H 3.2439152777 -1.8779327328 -2.6386761297
H 3.1202585467 -0.099743626 -2.7476120899
H 2.0125507509 1.9274496082 1.5908600476
H 2.629586177 0.8802115647 2.89528326
H 4.0730878138 1.5829801584 0.2849078978
H 4.497626078 2.18263815 1.8955342932
H 4.6991634013 0.4614079503 1.5064920752
H -0.0478036783 -1.0104555257 1.7984551728
H -0.3322064059 -2.7862267247 1.6806632112
H -5.4203107714 1.2323862186 1.1056222117
H -4.7366322123 -0.389586756 1.42803078
H -3.1983843172 0.5706098059 3.1110320217
H -3.8084560816 2.1932414428 2.781886919
H -4.8719947646 0.9811160674 3.5189742784
H -3.1675694799 -0.7035951277 -1.7496522499
H -3.0403294176 0.8396090005 -2.6395650664
H -2.1158078046 -0.9712902967 -4.0375018702
H -0.7959739458 0.090181309 -3.5111617145
H -1.0311967307 -1.4771558456 -2.7301989935
*
