! pbe def2-sv(p) def2/J RI DEFGRID1 loosescf d4 GCP(DFT/SV(P)) printgap
%output
    printlevel normal
end
* xyz 0 1
C 5.4416675232 -0.8168100689 -0.9337186257
C 4.8114827902 -0.3910444959 0.3780680162
O 3.4428850321 -0.8359243607 0.4778173073
P 2.2131662634 -0.0210950594 -0.114031084
S 2.1052899765 0.1765078967 -2.0652067645
O 2.2996586138 1.3430412596 0.7025693699
C 2.085539594 2.6522556268 0.1508467395
C 3.4133298585 3.3045956739 -0.1788093429
S 0.7517309743 -1.1984405914 0.8346179037
C -0.2195261911 -1.7319213165 -0.6258858368
S -1.9820354592 -1.8263262148 -0.2795691056
P -2.402684046 0.2455036955 0.0390430891
S -1.0163297262 1.5123068852 -0.509231469
O -2.8668729367 0.3703425276 1.5581607016
C -1.9758894377 0.3711269583 2.6877198562
C -1.8767751873 -1.0095194935 3.3070655302
O -3.7565931536 0.506152797 -0.7097572185
C -4.9401947062 -0.3217867373 -0.531856884
C -5.1946813731 -1.1375795935 -1.7828540044
H 5.3795708596 -1.8958750783 -1.0443548805
H 4.9259051336 -0.3539463607 -1.7726344152
H 6.483627633 -0.5130009181 -0.9459732345
H 4.8433530879 0.6949704286 0.4992803722
H 5.3044520933 -0.8678737676 1.2273636764
H 1.4574580375 2.5728213208 -0.7413642214
H 1.5411717051 3.2014308628 0.9202807512
H 3.9178867804 2.7434082453 -0.9636004462
H 3.2333889351 4.3151522997 -0.5306479306
H 4.0457529799 3.3384480839 0.7044506402
H 0.0838994855 -2.7390192677 -0.9008782815
H -0.0307231293 -1.0261754529 -1.4389234383
H -0.9937129357 0.737213332 2.3711969863
H -2.4202873862 1.0857688395 3.3832213473
H -2.8698194781 -1.3855353016 3.5356327628
H -1.3794848891 -1.7006285064 2.6301004293
H -1.2976168495 -0.9437489036 4.2221852522
H -4.8022001196 -0.961751674 0.3410356498
H -5.7485063338 0.3870957436 -0.3466316869
H -4.3926744901 -1.8544904026 -1.9391733437
H -6.1325786363 -1.6720881816 -1.6711321059
H -5.2560396807 -0.4823795968 -2.647303263
*
