! pbe def2-sv(p) def2/J RI DEFGRID1 loosescf d4 GCP(DFT/SV(P)) printgap
%output
    printlevel normal
end
* xyz 0 1
C 2.1764878326 2.2510353474 -2.6229313343
C 2.5687933465 1.8461507988 -1.2177808161
O 1.8813080359 0.6108818967 -0.9074416705
P 2.0661902366 -0.0836189923 0.5024733013
S 1.5887443286 1.0781171854 2.0178602395
O 3.5990934082 -0.5064037565 0.4097006294
C 4.2450943349 -1.5189572598 1.2047595898
C 3.9826684992 -1.36895173 2.6883624845
S 1.0033539166 -1.8834181768 0.2707094281
C -0.3199224043 -1.6277713483 1.4990472778
S -1.9914403336 -1.6482326194 0.8031974062
P -1.9986151122 0.0558576741 -0.441614604
S -1.0476634786 0.0655915973 -2.1608919409
O -1.532559369 1.1395044548 0.6174342568
C -1.1195999077 2.4613809192 0.2250060145
C -2.2866153347 3.3055737753 -0.2381591353
O -3.5546307137 0.3523764238 -0.5869879211
C -4.3405900549 -0.1944110369 -1.6580263934
C -4.5088928336 -1.6938648067 -1.5225791392
H 1.0956384915 2.3379852051 -2.7014176484
H 2.6356403868 3.204413678 -2.8625103002
H 2.5066989036 1.4973510513 -3.3316557793
H 2.2723776879 2.5982764441 -0.4783366148
H 3.644401474 1.6702386381 -1.1365310047
H 3.9040302208 -2.4943384573 0.8469902738
H 5.3034422432 -1.3889560863 0.9715566085
H 4.2592307647 -0.3728813453 3.0262234016
H 2.9257653043 -1.5237786221 2.9018618372
H 4.5646809644 -2.1069024466 3.2309699514
H -0.1395530845 -0.6817362088 2.0178734202
H -0.2981897839 -2.4680724008 2.1890187593
H -0.6497381553 2.8660192263 1.1237525056
H -0.3709941873 2.3652917024 -0.5689899025
H -1.9468789074 4.322722905 -0.4066582671
H -2.6887533199 2.905040203 -1.167472426
H -3.0694788522 3.3036223139 0.5153879022
H -5.2941278161 0.3291661568 -1.579244403
H -3.8537544339 0.0538487888 -2.6071788165
H -4.9046959603 -1.9425200715 -0.5412207168
H -5.1873479803 -2.0529086865 -2.289733849
H -3.5442471752 -2.1865124725 -1.6439656128
*
