! pbe def2-sv(p) def2/J RI DEFGRID1 loosescf d4 GCP(DFT/SV(P)) printgap
%output
    printlevel normal
end
* xyz 0 1
C 4.6117368678 0.8210793863 -1.6243920486
C 4.7757320383 0.034516646 -0.3403043128
O 3.5815877177 -0.6817610271 0.0253028771
P 2.2308011368 0.0570983186 0.4224104649
S 2.4342848227 1.6780249518 1.4914283735
O 1.4367318421 -1.0735705025 1.1871431468
C 1.3268190108 -2.4339228433 0.7010281982
C 2.3383917917 -3.3277084633 1.3860995166
S 1.2267790299 0.2739835914 -1.4501300709
C 0.0779382903 1.5750604266 -0.9168812907
S -0.9301106971 1.1318019081 0.5194475778
P -2.3279027202 -0.1380399788 -0.49021598
S -1.6327539439 -1.8249836338 -1.1978896893
O -2.9557601816 0.7554775118 -1.6306060801
C -4.0521969751 1.6912458427 -1.4723732973
C -3.7105379209 2.8526697171 -0.5630612114
O -3.5173222529 -0.292664702 0.5515365488
C -3.52521826 -1.3369202433 1.5400131824
C -2.515217775 -1.0816843467 2.640359222
H 4.2328453553 0.1803112916 -2.4170383154
H 3.9127081341 1.64185958 -1.4710165746
H 5.5734115993 1.2291686069 -1.9184385023
H 5.0413738671 0.7005851401 0.4863150561
H 5.526750616 -0.7502728215 -0.4431391326
H 0.3033782342 -2.7349536522 0.9352183696
H 1.4537806405 -2.4393475655 -0.3851715487
H 2.2179734555 -3.2641787169 2.4641279297
H 2.1768669841 -4.3517373861 1.0645557633
H 3.348427544 -3.0232241464 1.1253609474
H -0.5602918018 1.7882263873 -1.7719193349
H 0.6501509799 2.4513912365 -0.6146084395
H -4.2415888501 2.0221051509 -2.4948670777
H -4.915093006 1.1417870401 -1.0928131114
H -4.5435728929 3.5488923297 -0.55709361
H -3.5363350003 2.5018780423 0.4516077722
H -2.8203625047 3.3690285645 -0.9137114722
H -4.5463771807 -1.3286403053 1.9236013397
H -3.3216369849 -2.2891902282 1.039195047
H -2.6141689994 -1.8458583953 3.4045899436
H -1.5023754578 -1.113619147 2.2390897084
H -2.6765227095 -0.1032926362 3.0858194385
*
