! r2scan-3c def2/J RI DEFGRID2 scfconv6 printgap
%output
    printlevel normal
end
* xyz 0 1
C 5.393836224 -1.9824836167 -1.4259072447
C 4.3281820481 -0.9062128863 -1.4763110795
O 3.2933558076 -1.2629286087 -0.5379339195
P 2.2760636424 -0.1891521736 0.0344760684
S 3.0813388752 1.4785028541 0.6870954665
O 1.466017139 -1.0409727486 1.0915860132
C 1.7907253403 -1.0214512326 2.4997185452
C 3.0984496076 -1.7324292601 2.7725501251
S 0.8515997744 0.017391243 -1.5190662751
C 0.0506925731 1.4955091215 -0.8350571336
S -0.9648615833 1.1319851892 0.6118181876
P -2.5795178761 0.2257537646 -0.4577643346
S -2.9532670031 0.985922717 -2.2211627098
O -3.7987796002 0.2622990014 0.5596048863
C -4.7079153403 1.3742287556 0.6360293295
C -4.044458659 2.6262747773 1.1724309714
O -2.2547844692 -1.3110736187 -0.5716430895
C -1.6756061228 -2.1882204102 0.4241445928
C -2.328341448 -2.0619044402 1.7833532548
H 5.8355527511 -2.0277082049 -0.4345403046
H 4.955130813 -2.9477597438 -1.6609656641
H 6.166666778 -1.7518928455 -2.151732751
H 3.8775996162 -0.8356359278 -2.4700181152
H 4.7320430593 0.0728179622 -1.1964727463
H 1.8356845472 0.0209175846 2.8299738388
H 0.9452880479 -1.5236335463 2.9710602289
H 3.2708772582 -1.7741654465 3.8433653844
H 3.0699885108 -2.7407410872 2.3683639203
H 3.9168643888 -1.1878786783 2.3029674337
H -0.5799113078 1.9041918332 -1.6257588343
H 0.8151950291 2.2072860277 -0.5224354839
H -5.1178544916 1.5548482079 -0.362581526
H -5.4954532907 1.0192519298 1.3021946997
H -3.5367307126 2.4156697962 2.1101797908
H -3.3162586544 2.999925844 0.4542993881
H -4.7990038065 3.3892906506 1.3344373548
H -1.8257494866 -3.1801524549 -0.0054081105
H -0.6049225809 -1.9743744322 0.4800818525
H -2.1446373511 -1.0733784871 2.2006950137
H -3.4012717807 -2.2145544295 1.7011606186
H -1.9090908389 -2.8124329468 2.4468246544
*
