! pbe def2-sv(p) def2/J RI DEFGRID1 loosescf d4 GCP(DFT/SV(P)) printgap
%output
    printlevel normal
end
* xyz 0 1
C 2.4882358375 -3.9161248266 -0.5483585461
C 2.8850483371 -3.1668323669 0.7135803116
O 2.8986977825 -1.7462365043 0.4718549355
C 1.7961302705 -1.0610491275 0.6667419571
O 0.7588329484 -1.5373596076 1.0885499932
C 1.9674188104 0.3995269603 0.3109387045
C 0.7249277254 0.9006759845 -0.4096146343
H 0.4670758692 0.2519426989 -1.2566811528
C 0.8073618796 2.3360384303 -0.9075099905
O 0.0748914891 2.7636504183 -1.7705852208
O 1.7300115233 3.0260933767 -0.2808688979
C 1.8550430621 4.4317648213 -0.5828907167
C 0.8940977001 5.24857785 0.2654511463
S -0.7466993039 0.8993872501 0.689524583
P -1.6422076883 -0.9389471689 0.079051944
S -0.8967768316 -1.874722819 -1.4691750256
O -1.9028510218 -1.8507430329 1.3350967562
C -2.4416887743 -1.3352847227 2.5677829088
O -3.15595095 -0.4490892267 -0.1922941502
C -3.4674328302 0.3829137378 -1.3092877081
H 3.1708288226 -3.6759581252 -1.3585937925
H 2.5166900629 -4.9838297273 -0.3585225029
H 1.4790087343 -3.639435742 -0.8501906822
H 3.9053029304 -3.404643459 1.0147603992
H 2.1839475809 -3.3775585536 1.5259188761
H 2.8461750494 0.5078890996 -0.3242395623
H 2.1179784899 0.972643572 1.2281737076
H 2.8934763124 4.6667303967 -0.3505396872
H 1.6557809342 4.5789608704 -1.647729715
H 1.0674793506 5.0551593176 1.3202042201
H 1.0455100643 6.3037205315 0.0637620559
H -0.1331371265 4.9855142397 0.0234558276
H -3.4274352673 -0.9071945532 2.3940557568
H -1.7688637826 -0.5818538342 2.976780255
H -2.5015309226 -2.196074829 3.2286219936
H -3.1439920567 -0.0955259378 -2.2354110454
H -2.9756254372 1.3522482316 -1.2098711549
H -4.547770939 0.499555173 -1.2977971454
*
