! pbe def2-sv(p) def2/J RI DEFGRID1 loosescf d4 GCP(DFT/SV(P)) printgap
%output
    printlevel normal
end
* xyz 0 1
C 3.7571135093 1.5424380758 -1.7513837235
C 2.4122493246 0.8760896041 -1.9532909456
O 2.2459327808 -0.2590243478 -1.085894793
P 2.0353998631 -0.1011190665 0.4929819968
S 1.0274368046 1.4755597254 1.0611708596
O 3.4657161431 -0.0748073336 1.1728341067
C 4.4843810122 -1.0736817977 0.9168570972
C 4.5849427587 -2.0391201936 2.0803383695
S 1.3251787925 -2.0396430958 0.8965263456
C -0.2494422044 -2.026910377 0.0020104512
S -1.6386154414 -1.3442403632 0.9753209911
P -2.162799725 0.326712708 -0.2017289202
S -1.1108098821 0.66327993 -1.8255656365
O -2.208416769 1.4248320311 0.9313467416
C -2.1724777465 2.8413722645 0.6718632654
C -3.3456107664 3.3053643553 -0.1651406341
O -3.7203368076 0.1468518499 -0.4906575487
C -4.2281180396 -0.541239344 -1.6445259485
C -3.912586553 -2.0233145208 -1.6168414109
H 4.5611086459 0.8279218184 -1.9078773931
H 3.859581403 2.3603897065 -2.4574909983
H 3.8225441536 1.9394664455 -0.7384994164
H 2.3040459801 0.4600780688 -2.9560169288
H 1.5962454439 1.5813056897 -1.7667795048
H 4.2486773204 -1.5952579152 -0.0138711418
H 5.4062403404 -0.501132811 0.7991743305
H 3.6629944423 -2.6071074158 2.1843224208
H 5.4077628164 -2.7241296224 1.9022853138
H 4.7654593156 -1.4918009646 3.0013285575
H -0.4745076809 -3.0704792387 -0.2003397503
H -0.1413067159 -1.4505688388 -0.9205361857
H -2.1814753663 3.2824811946 1.6695918891
H -1.2193333988 3.0748679331 0.1862885707
H -3.2831988592 2.8767103213 -1.165029004
H -4.2798417866 2.9935781879 0.2949527615
H -3.3218893898 4.3877425763 -0.2436025401
H -5.3025897811 -0.3574113815 -1.6059140872
H -3.8020802428 -0.0755405636 -2.5392387736
H -4.4297933847 -2.5150406712 -2.4344601952
H -2.8404891494 -2.1762584068 -1.7344645696
H -4.2295041902 -2.4593410724 -0.6728515174
*
