! pbe def2-sv(p) def2/J RI DEFGRID1 loosescf d4 GCP(DFT/SV(P)) printgap
%output
    printlevel normal
end
* xyz 0 1
C 4.1921314441 -0.3338896069 -2.3906171317
C 4.4324636823 0.4322086518 -1.1057891246
O 3.7442583401 -0.1525560374 0.0123341111
P 2.1590020686 -0.1836545764 0.1256247828
S 1.2686271562 1.4730932936 -0.4622253502
O 1.9426754884 -0.5710686037 1.645248091
C 1.8937275577 0.4092034526 2.7005104725
C 3.2729585424 0.927193671 3.0520928336
S 1.6244355797 -2.0129978007 -0.761163093
C -0.1300401199 -1.6932386735 -1.0800522457
S -1.0643717605 -1.2704604597 0.4222714867
P -2.1533825616 0.4293393161 -0.2970886354
S -1.9158600184 0.9205536882 -2.1728688555
O -1.8115264837 1.5978126978 0.7018606853
C -1.8137597783 1.4927399002 2.1449091333
C -3.1898288608 1.7400952356 2.7277161954
O -3.6624978488 0.0970893238 0.0987552346
C -4.5569337049 -0.6107245663 -0.7756570665
C -4.1187629482 -2.0403527819 -1.0207145039
H 4.8273388344 0.0678987882 -3.1735891916
H 4.4132228372 -1.3888275342 -2.2489893716
H 3.1511009426 -0.2312907846 -2.6959144992
H 4.1007854784 1.4704239856 -1.2108436599
H 5.482079678 0.4043441841 -0.8100286253
H 1.2423676785 1.2296568313 2.3804261379
H 1.4375231246 -0.1256385626 3.5348256483
H 3.9405432169 0.0962863526 3.2626647096
H 3.6790108961 1.5023358354 2.2218749038
H 3.203279205 1.5671445534 3.9262199574
H -0.521297854 -2.6221204378 -1.4882281691
H -0.2405492031 -0.8713531188 -1.7938248216
H -1.4370044856 0.5043845711 2.4259794184
H -1.106657549 2.2630459432 2.4607433095
H -3.112686519 1.7615103575 3.8103715565
H -3.5755646989 2.6931004351 2.3759429133
H -3.8758204046 0.9518431575 2.4315542551
H -5.5158057974 -0.5661919285 -0.257351586
H -4.618636582 -0.0620314562 -1.72043962
H -3.2070969841 -2.0488465815 -1.6165491016
H -3.9332884306 -2.5482443638 -0.0776231539
H -4.8974958484 -2.5638156508 -1.5659627646
*
