! pbe def2-sv(p) def2/J RI DEFGRID1 loosescf d4 GCP(DFT/SV(P)) printgap
%output
    printlevel normal
end
* xyz 0 1
C 4.6703343234 0.5009490517 -1.5557970884
C 4.6225628968 0.1783227383 -0.0768224475
O 3.3967032291 -0.4727711466 0.3052755558
P 1.9888438602 0.2623573317 0.2324604952
S 2.0224760713 2.140089446 0.7715599306
O 1.1001239261 -0.6237550796 1.2034359755
C 1.1663662853 -2.070175217 1.2234825009
C 2.0812774383 -2.5509001901 2.3294118948
S 1.3452692565 -0.2916855752 -1.7182936733
C -0.086104977 0.8109901236 -1.9949966694
S -0.9906225583 1.3549361624 -0.5303633678
P -2.0535714169 -0.4146691449 0.0151868487
S -1.6808576729 -2.0385005199 -1.0057987908
O -3.5934140929 0.0013553371 0.0102505806
C -4.4326807312 -0.1235872781 -1.1468234486
C -4.1002351399 0.9035851674 -2.2106530808
O -1.7888566342 -0.5982415884 1.5590427224
C -1.6217602183 0.4456240078 2.5450279158
C -2.7388206369 1.4650372423 2.5252995212
H 4.4526469986 -0.3861015 -2.1457102844
H 3.9361051021 1.2697692815 -1.791766435
H 5.6590306366 0.8699580536 -1.8089122672
H 4.7253535572 1.0906822007 0.5186617936
H 5.3952823049 -0.5388672603 0.2036453858
H 0.1361224982 -2.3930075774 1.3914060377
H 1.4976913562 -2.425648774 0.2436794959
H 1.7563546551 -2.1441990266 3.2832254312
H 2.0432603724 -3.6350573061 2.3688280873
H 3.1028415918 -2.2332429842 2.1395749849
H -0.743917335 0.2507151456 -2.6580642898
H 0.2657454145 1.7255810378 -2.4677323614
H -4.3300656698 -1.1390735434 -1.5432655775
H -5.4404948744 0.0194111112 -0.7544763564
H -4.0808976994 1.9017052381 -1.7807979569
H -3.1266316146 0.6892617599 -2.6477733272
H -4.8506087804 0.8636197026 -2.9936934967
H -1.5952214759 -0.1050801561 3.4866031981
H -0.6511620986 0.9222094447 2.3754869806
H -2.7240010457 2.0226569763 1.5901277492
H -3.7012782003 0.9707720318 2.6285549297
H -2.5965580359 2.1590629381 3.3480854105
*
