! pbe def2-sv(p) def2/J RI DEFGRID1 loosescf d4 GCP(DFT/SV(P)) printgap
%output
    printlevel normal
end
* xyz 0 1
C 3.2505608534 -1.2500337779 -2.3808863866
C 1.8623924442 -0.6550722484 -2.2874262661
O 1.3664259469 -0.6705177116 -0.9363926631
P 2.0008299079 0.2327330918 0.2023494437
S 2.8405636522 1.9226535776 -0.3131681088
O 2.9926050244 -0.8261501232 0.8714678797
C 4.052071798 -0.4306996456 1.7562738241
C 3.5260443807 0.0615553565 3.0898541675
S 0.3778554417 0.3404463049 1.547198073
C -0.2198092082 -1.3656932705 1.4599451093
S -1.2003080829 -1.7655536028 -0.0333230246
P -1.9613438492 0.1151338364 -0.5988649756
S -0.8737261116 1.5205624424 -1.431407342
O -2.7380077754 0.5297455696 0.7336390421
C -2.8006244647 1.8582382696 1.2915354325
C -2.6718435913 1.759827535 2.7980683561
O -3.0789944483 -0.2947772684 -1.6446386581
C -4.159197289 -1.2186588617 -1.3513827825
C -3.9211576575 -2.547480451 -2.0401322457
H 3.547200339 -1.3035077971 -3.4235497202
H 3.9575121908 -0.6191089097 -1.8430928181
H 3.2608786825 -2.2462937643 -1.9466821304
H 1.1258932316 -1.2412535288 -2.8404083937
H 1.8481835178 0.3790657402 -2.6480843908
H 4.6544397361 -1.3334549776 1.8664556181
H 4.6373657003 0.3525528825 1.2640492498
H 2.9517064346 0.9765275215 2.9455433238
H 2.8859437391 -0.6871947022 3.5488970943
H 4.3625157138 0.2726720837 3.7481785527
H -0.854262523 -1.5030578928 2.3324642417
H 0.6240461421 -2.052634701 1.4671130968
H -1.9991985106 2.4642321128 0.8554340236
H -3.7645414562 2.2820247048 1.0000724813
H -1.6909692543 1.3752635803 3.0666817632
H -2.7953157464 2.7491430915 3.2260257212
H -3.4378048905 1.0984768636 3.1921456134
H -4.2435656933 -1.3374515648 -0.269056653
H -5.0532729981 -0.727798476 -1.739696531
H -3.0305963953 -3.0285708544 -1.6418344834
H -4.7792094793 -3.1909185768 -1.8737886882
H -3.7891454424 -2.3929737189 -3.1074326915
*
