! wb97x-v def2-tzvp def2/J RIJCOSX DEFGRID2 scfconv7 GCP(DFT/TZ) printgap
%output
    printlevel normal
end
%cpcm
    smd true
    smdsolvent "water"
end
* xyz 0 1
C -0.5459433091903789 1.3524686472481096 4.5283626906130584e-05
C 0.1588497793800433 0.19698243644876098 4.142078789382054e-05
C -0.5176263988381787 -1.0829037279655198 4.169028079712504e-05
O 0.010291433949545622 -2.191423019011072 3.279062149547598e-05
N -1.9113755997750883 -0.9641046140187408 1.0937460895288476e-05
C -2.662771706596245 0.1914263907467277 -1.297325203357734e-06
O -3.889929141015813 0.19523235831615923 -3.429155367913452e-05
N -1.9083000670111212 1.3451235091704332 2.918328773522093e-05
Br 2.048998363149994 0.2166450009086231 5.936689114292695e-05
H -0.08419206004462393 2.3326624615708487 5.750350775495221e-05
H -2.437125031550789 -1.8326069035781474 -8.629000282276037e-06
H -2.4135886501289656 2.223000607293704 2.311641600415333e-05
*
