! pbe def2-sv(p) def2/J RI DEFGRID1 loosescf d4 GCP(DFT/SV(P)) printgap
%output
    printlevel normal
end
* xyz 0 1
C 3.0270680611 -3.9999421625 0.0669934225
C 2.7561329566 -2.5644479471 0.468847243
O 2.382578403 -1.8351378787 -0.716701242
C 2.1435625888 -0.551093668 -0.6068905064
O 2.2110357748 0.0807521355 0.4300228626
C 1.7818479745 0.0908742687 -1.93211159
C 0.5048470977 0.9223616805 -1.7792620711
H 0.4063773219 1.6120566626 -2.6202444907
C 0.5158561142 1.7110223584 -0.4853099817
O -0.3105955078 1.5159534401 0.3938040268
O 1.4349943191 2.6235044693 -0.4614462928
C 1.5964680073 3.4147488435 0.737965014
C 0.6159679059 4.5747664063 0.7650834889
S -1.0032887937 -0.1100065696 -1.8118756897
P -1.5717283329 -0.4501247897 0.198581001
S -0.4916905874 -1.1457517904 1.693891102
O -2.7632197744 0.5312890599 0.634623016
C -2.7183497645 1.4818836759 1.6957584445
O -2.4904019553 -1.6429926838 -0.3941861369
C -3.3069458862 -2.4574822465 0.4452026077
H 2.1333254059 -4.4366584467 -0.3684380766
H 3.8305065226 -4.0373257085 -0.6624986201
H 3.3102552366 -4.568361862 0.9463482559
H 3.6390786572 -2.0842168419 0.9018025561
H 1.9365116525 -2.4869664654 1.1916234749
H 1.6455351987 -0.6753991283 -2.6928275328
H 2.6034856839 0.7538896344 -2.2111099225
H 1.465042512 2.7565208528 1.6008377001
H 2.6274888427 3.7631045444 0.6837816321
H 0.7352884997 5.1869250334 -0.1243610248
H -0.4060836623 4.2059106091 0.8095429067
H 0.807076797 5.1798607166 1.6449309027
H -1.9414857252 1.2117443756 2.4128685045
H -3.6982716854 1.4543452592 2.1681608354
H -2.5161396389 2.4702654618 1.2874590167
H -4.2033186126 -1.9111385919 0.737860397
H -2.7480485885 -2.7560700845 1.335472141
H -3.5666463029 -3.3293348614 -0.150241643
*
