! pbe def2-sv(p) def2/J RI DEFGRID1 loosescf d4 GCP(DFT/SV(P)) printgap
%output
    printlevel normal
end
* xyz 0 1
C 2.0407305278 -4.3668573389 -0.952794939
C 1.6805366094 -3.1008538964 -0.1986356345
O 1.6217913719 -2.012621763 -1.1391614564
C 1.9787284927 -0.8086237324 -0.7627950331
O 2.3708270694 -0.5125512507 0.3492889579
C 1.8128854831 0.1994389474 -1.8853006546
C 0.5878027888 1.0796535428 -1.5910071838
H 0.4968764371 1.861732414 -2.3461993481
C 0.7361108712 1.6922095942 -0.2168699659
O 0.1650069649 1.2398546842 0.7604019211
O 1.5313046782 2.7174171599 -0.2168896494
C 1.8692960521 3.3384427335 1.0450587193
C 3.1380064254 2.7167449267 1.6041780078
S -0.9490147285 0.095277385 -1.6485684221
P -1.6797288344 -0.1596389235 0.3370471985
S -2.6198855357 1.2688157574 1.3196459784
O -2.7510884929 -1.2893003465 -0.0853321008
C -3.9570004646 -0.9769757152 -0.7824108571
O -0.7694932911 -1.1993708551 1.1312036447
C -0.1669183464 -0.9409852698 2.4004777692
H 3.0219828132 -4.2686764997 -1.4083603763
H 2.04976571 -5.2030482105 -0.2616494294
H 1.3073386203 -4.5530648352 -1.7315199829
H 2.4189648339 -2.8559147117 0.5712163735
H 0.693084175 -3.1795513344 0.2666633929
H 1.6614840013 -0.3271238213 -2.8258771641
H 2.6983067921 0.834853428 -1.9309628095
H 2.00944962 4.3914548349 0.8011140856
H 1.0289486068 3.2131398671 1.7327061066
H 3.9734074636 2.8984549826 0.9344386116
H 3.3540637863 3.1512058205 2.574235779
H 3.0074154811 1.6419053925 1.7168185227
H -3.7493560772 -0.8205612229 -1.8411671713
H -4.4151602427 -0.081439245 -0.3566346114
H -4.6086328276 -1.8361795517 -0.6431743284
H -0.6405079442 -0.0829205056 2.879708086
H 0.8950426608 -0.7415200023 2.2543773466
H -0.3149600505 -1.838325803 2.9974115717
*
