! r2scan-3c def2/J RI DEFGRID2 scfconv6 printgap
%output
    printlevel normal
end
* xyz 0 1
C -0.738674201 -1.1914777207 -0.2310857295
C 0.7272479847 -1.1715226996 0.220252113
O 1.3861941511 0.0013885751 -0.2327425281
C 0.724732205 1.1729027869 0.2202723576
C -0.7412240911 1.1900649065 -0.2310807811
N -1.4567710278 -0.0014571057 0.2028218462
H -1.2400717806 -2.074848529 0.1644759036
H -0.7763999559 -1.2174179146 -1.3236204754
H 0.781575066 -1.215962612 1.3199071515
H 1.2864759791 -2.0060860439 -0.2030524546
H 0.7789856507 1.2175188354 1.3199275852
H 1.2821803462 2.0086336172 -0.2030351531
H -1.2445052017 2.0723853173 0.164461434
H -0.779017626 1.2158817988 -1.3236096302
H -1.5162955814 -0.0015073842 1.2183557088
*
