! pbe def2-sv(p) def2/J RI DEFGRID1 loosescf d4 GCP(DFT/SV(P)) printgap
%output
    printlevel normal
end
* xyz 0 1
C 4.6519737772 1.5946785687 -0.218806443
C 3.9085563786 1.0209057778 -1.4072386433
O 3.1181892623 -0.1349714414 -1.0713509947
P 2.0656121775 -0.227254728 0.1123524116
S 2.7587378706 -0.5160349264 1.9278386322
O 1.1244393375 -1.3878773262 -0.4143397729
C 1.2490005308 -2.7498321242 0.0312848667
C 2.5191704941 -3.384817408 -0.4925567391
S 0.8539718379 1.4779853575 -0.1634112648
C 0.0023351143 1.3813009797 1.4311602368
S -1.0676300316 -0.0784469842 1.5966116564
P -2.2569999256 0.1604304225 -0.1444698058
S -1.6566598041 -0.4949199706 -1.8967066408
O -2.563570695 1.7059899116 -0.0336368986
C -2.8109569518 2.5683378718 -1.1678941243
C -1.9375820586 3.8012176449 -1.0495058347
O -3.6522453501 -0.470497 0.2960911721
C -3.9674239608 -1.8546744696 0.0821753464
C -3.1404362835 -2.7585080069 0.9742231342
H 3.946418832 1.9788981901 0.5168762514
H 5.2603934505 0.8279317812 0.255081515
H 5.2913916648 2.4054581312 -0.5528011838
H 4.5967997099 0.6470253825 -2.167507029
H 3.2431685506 1.7692416298 -1.847508782
H 1.226787319 -2.762450423 1.1265554681
H 0.3572211474 -3.2384826745 -0.365271617
H 2.5577082974 -4.4253768881 -0.186357624
H 2.5490572382 -3.3206353819 -1.5770993848
H 3.3831005583 -2.859524792 -0.0856352137
H -0.5927875934 2.2852212905 1.5304531235
H 0.7396538973 1.2966081065 2.2309392785
H -2.594315969 2.0143449568 -2.0876139131
H -3.8719528977 2.8230813195 -1.1379435314
H -2.1476881881 4.4640651254 -1.8824116472
H -2.1462176408 4.3196618163 -0.1180125958
H -0.8862053128 3.5206286435 -1.0728992536
H -5.0319047531 -1.9243785367 0.3089529705
H -3.794008933 -2.0895662933 -0.9736171748
H -3.2711635673 -2.4838686804 2.0178097585
H -3.4426803393 -3.790577463 0.82907339
H -2.0845457097 -2.6575985967 0.7198751573
*
