  15
        -24.03448563
 C         -1.8293310919       -0.7566506678       -0.1251800633
 C         -1.8304633763        0.7561632321        0.1249380633
 C         -0.5347378524        1.3043717914       -0.4400749872
 S          0.6567230851        0.0000318526        0.0000039116
 C         -0.5346386570       -1.3031394542        0.4435052860
 O          1.4529261743        0.3849932967        1.1581672601
 O          1.4483151657       -0.3857688772       -1.1610032967
 H         -1.8642704115       -0.9477726740       -1.1981589593
 H         -2.6932420385       -1.2254105948        0.3426971448
 H         -2.6934528177        1.2238274400       -0.3457708623
 H         -1.8692822391        0.9472751696        1.1977504214
 H         -0.5323251802        1.3658951043       -1.5231717087
 H         -0.2027204762        2.2329659917        0.0072141627
 H         -0.2021456130       -2.2332462775       -0.0004132019
 H         -0.5334589944       -1.3611127235        1.5267538661
