! pbe def2-sv(p) def2/J RI DEFGRID1 loosescf d4 GCP(DFT/SV(P)) printgap
%output
    printlevel normal
end
* xyz 0 1
C 4.5822875413 -0.8410372008 -2.1411789653
C 4.0025250165 -1.8223410447 -1.1442573343
O 3.5358131144 -1.1884973666 0.0610143831
P 2.4916668524 0.0041517565 0.1323846597
S 3.1579240864 1.8012971503 -0.2697753097
O 2.0292006002 -0.0319523821 1.6369265621
C 1.2216909583 -1.0334382231 2.3009576761
C 1.7816124115 -2.434666237 2.1778292144
S 0.8670652349 -0.6718800541 -1.0804964244
C 0.1040375891 0.9487485252 -1.2847217915
S -0.6983771996 1.546679627 0.2304058215
P -2.4312755416 0.3592769054 0.0344634992
S -3.2020883735 0.1835968668 -1.7640220165
O -3.439101728 0.9001138569 1.1389114623
C -4.4006506433 1.9340577378 0.8651402261
C -3.738923476 3.2735262812 0.6140440374
O -1.92449509 -0.9835989926 0.7022592182
C -2.6041174126 -2.2495120496 0.5134759042
C -1.5649312027 -3.3363967309 0.3303624954
H 3.8069880186 -0.1667330481 -2.5020200453
H 5.3635163 -0.2443216423 -1.6762559324
H 4.9977271312 -1.3853440683 -2.9831588177
H 4.7606369809 -2.5219257381 -0.7879805366
H 3.1666620469 -2.3717195748 -1.5864287223
H 1.2167002986 -0.6931318069 3.3379392113
H 0.2075397623 -0.977155102 1.8948638391
H 2.8279106657 -2.4460383548 2.4721878257
H 1.2211296315 -3.0958229119 2.8323201312
H 1.6982227584 -2.7918301718 1.1537559085
H -0.6391975779 0.8611712265 -2.077958152
H 0.8762988742 1.6778179925 -1.5347604821
H -4.9958389816 1.6306223506 -0.0020973864
H -5.0264837764 1.9535693913 1.7582284025
H -3.0674873256 3.5236832105 1.431888008
H -3.1642537401 3.2381020933 -0.3109885289
H -4.5008043824 4.0412469318 0.5248863768
H -3.2165835949 -2.4198490348 1.4009469979
H -3.2519408068 -2.1708874798 -0.3659978285
H -0.941354281 -3.1127844644 -0.5319161552
H -0.9371606501 -3.4078869243 1.2131560604
H -2.0699672599 -4.2834715404 0.1706269659
*
