! wb97x-v def2-tzvp def2/J RIJCOSX DEFGRID2 scfconv7 GCP(DFT/TZ) printgap
%output
    printlevel normal
end
%cpcm
    smd true
    smdsolvent "water"
end
* xyz 0 1
C -1.70841447897383 -0.815735493864315 -0.4679714369146691
C -0.8974033954599128 -0.07246532343470319 0.5590634859998324
N 0.5075769669561175 0.24240467200046795 0.09080082993488214
O 1.1987860089911981 0.928501103099586 0.838042236786667
O 0.8922404817617617 -0.19852191548829387 -0.9839438446205917
H -1.2722291827816783 -1.7897153133274473 -0.6999678340557762
H -2.705807113769174 -0.9774445760426836 -0.0490654967282502
H -1.8134109413146147 -0.23830232676965743 -1.3894667792704263
H -0.752923339411165 -0.6409896663940584 1.482902565174049
H -1.3221757382132135 0.8989758157787195 0.8250081769923396
*
