! pbe def2-sv(p) def2/J RI DEFGRID1 loosescf d4 GCP(DFT/SV(P)) printgap
%output
    printlevel normal
end
* xyz 0 1
C 4.4921888402 1.8142631698 -0.7162050742
C 4.5356706148 0.3120574065 -0.9085037164
O 3.2234306844 -0.2485821869 -1.0933249436
P 2.1478714677 -0.3006855262 0.0727633469
S 2.8638876709 -0.7001774027 1.8561560831
O 1.0850774267 -1.3196295707 -0.5033779781
C 1.1129648159 -2.7312529827 -0.2171463238
C 2.3402640438 -3.4016930066 -0.7958269174
S 1.0578912179 1.4942643902 -0.1400595487
C 0.240355968 1.4255643388 1.4765803603
S -0.9161681405 0.0363790424 1.6518531475
P -2.1474888636 0.3518483028 -0.05254053
S -1.6787092862 -0.4171201426 -1.7983312286
O -2.2585871939 1.9280989473 0.0192489741
C -2.6239928904 2.717555909 -1.132729539
C -4.0803500083 2.5267189737 -1.499091963
O -3.580144408 -0.1145678883 0.4626247344
C -4.0361596635 -1.4677144702 0.3173172422
C -3.272077728 -2.4128249182 1.2225333751
H 3.9325429329 2.2819469034 -1.5225809608
H 4.0098532909 2.0551592596 0.230311553
H 5.504822807 2.2043894512 -0.7051479531
H 4.998907092 -0.1728343371 -0.0431101863
H 5.0680352822 0.0364730192 -1.8197486229
H 1.0699185236 -2.8623381041 0.8693755688
H 0.1942645697 -3.1030789799 -0.6750406444
H 2.2694567292 -4.4741713749 -0.6440676741
H 2.4153049486 -3.1883833704 -1.8591560442
H 3.2344996736 -3.0302063498 -0.2960855912
H -0.2909216536 2.3646195108 1.604284614
H 0.9891179993 1.2813133426 2.2566369609
H -2.411460002 3.7422685195 -0.8256776253
H -1.9725918277 2.4369766469 -1.9666797767
H -4.3422255322 3.2085838533 -2.301967427
H -4.2447426837 1.5036880177 -1.834931948
H -4.7128302531 2.7193794433 -0.6366847027
H -5.0941053641 -1.4230026365 0.578180311
H -3.921105308 -1.7612722993 -0.7318367094
H -3.3410439589 -2.085802941 2.2568108955
H -3.6773720642 -3.4151648578 1.1300979415
H -2.2200647156 -2.4263280109 0.9343478145
*
