  8
        -32.10413020
 C          0.6974611943       -0.5478702922       -0.2068079598
 C         -0.5736092722        0.1581166874        0.3098558532
 F         -0.4899091557        0.2869876077        1.6482188875
 Cl        -1.9972521578       -0.8274559770       -0.0758541825
 Cl        -0.6940465228        1.7624835204       -0.4160866788
 F          0.7842810611       -1.7835811120        0.3053627873
 F          0.6406189677       -0.6904957303       -1.5352032354
 Cl         2.1483003397        0.3690232292        0.2328310689
  8
        -32.10406941
 C          0.7232681081       -0.6336712042        0.0045209750
 C         -0.6094838568        0.0298595144        0.4134501976
 F         -1.1657016530       -0.6922099013        1.4100373261
 Cl        -1.7142073444        0.0369449574       -0.9645528977
 Cl        -0.2991059273        1.6649690393        1.0044134748
 F          1.5478296787       -0.7020745950        1.0596037455
 F          0.5089789637       -1.8988028901       -0.3841716161
 Cl         1.4972420042        0.2673339504       -1.2990152173
