! pbe def2-sv(p) def2/J RI DEFGRID1 loosescf d4 GCP(DFT/SV(P)) printgap
%output
    printlevel normal
end
* xyz 0 1
C 4.5284847197 0.6581945875 -2.0563520995
C 4.6754060903 0.150795978 -0.637635327
O 3.6134987963 0.5983549968 0.2261332439
P 2.066787021 0.3561726985 -0.0294649553
S 1.1332351051 1.5202117558 -1.3055148738
O 1.4666715352 0.5996698474 1.4099409706
C 2.0785316434 0.2310922703 2.6742055883
C 2.1104594883 -1.2673262726 2.8949276364
S 1.9705213041 -1.7159188927 -0.5111760236
C 0.2244945256 -1.7768309116 -0.9452950906
S -0.8627057032 -1.4739942904 0.4834658984
P -2.071062206 0.1115642739 -0.2607158225
S -2.1524357541 0.2569681202 -2.208175873
O -1.6138525441 1.4497468827 0.4287290772
C -1.5502917442 1.6255949776 1.8648038645
C -2.7746857974 2.3607630682 2.3685119383
O -3.4375148767 -0.1757396827 0.505989087
C -4.233796451 -1.358872052 0.3004894892
C -5.211429428 -1.1809218217 -0.8443829602
H 3.6268234402 0.2492574479 -2.5105308818
H 4.4517247444 1.7429719856 -2.0663925114
H 5.3897243269 0.352087896 -2.6412534803
H 5.5748634186 0.5473454618 -0.1633152137
H 4.6931865263 -0.9422069112 -0.6183756656
H 3.0823422376 0.6573852739 2.7039485683
H 1.4416600807 0.7274046494 3.4084022195
H 2.8154398544 -1.7429437865 2.2174530947
H 2.4183827833 -1.4625814579 3.9174058083
H 1.1240720695 -1.6960172285 2.7314679857
H 0.0369048422 -2.7835065648 -1.3102490857
H -0.0017511837 -1.0298680363 -1.7122621793
H -1.4508611871 0.6438878876 2.3370933526
H -0.6386111041 2.2051797843 2.0250137769
H -2.8712599825 3.313478989 1.8548706734
H -3.6689937277 1.7716540512 2.1844470507
H -2.6695534767 2.5354852557 3.4347060462
H -3.5708701105 -2.2100925935 0.1225309922
H -4.756178429 -1.4967804732 1.2492609222
H -5.8441727845 -0.3157817016 -0.6662884332
H -4.6759456783 -1.0318425532 -1.7794503347
H -5.8302737763 -2.0685660512 -0.9263627861
*
