! pbe def2-sv(p) def2/J RI DEFGRID1 loosescf d4 GCP(DFT/SV(P)) printgap
%output
    printlevel normal
end
* xyz 0 1
C 3.4334490413 -1.3438364034 1.863028147
C 4.1801934767 -0.2464161976 1.1359940717
O 3.6434283094 0.0404384694 -0.1786085129
P 2.1249266165 0.3382907707 -0.5338234636
S 2.0052886441 1.2554689265 -2.256863914
O 1.5030514793 1.1016405724 0.7281092409
C 1.3809104685 2.5329912925 0.7650555474
C 2.7094033996 3.1978062759 1.0606739308
S 1.2272363721 -1.5636725391 -0.4417057426
C -0.0448605159 -1.4164101833 -1.7379093278
S -1.6991805911 -1.770003894 -1.1162502002
P -1.9002425424 -0.0361806859 0.1049589592
S -1.4619490334 1.6187395788 -0.8517330286
O -1.0471415123 -0.2021828535 1.414918671
C -1.3741268025 -1.044737696 2.5521154682
C -1.3942917341 -2.5182400756 2.2054576717
O -3.3875025994 -0.1467073863 0.6423977048
C -4.5143690333 0.0445621015 -0.2381648171
C -5.744565552 0.2490073346 0.6221618863
H 3.416649829 -2.2545127639 1.2691857557
H 3.9287278688 -1.5415385526 2.8088440422
H 2.4083396052 -1.0319212622 2.0572955336
H 5.2113562478 -0.5326852641 0.9226607786
H 4.1673371398 0.6797051395 1.7150707236
H 0.9807239925 2.8775101263 -0.1943554849
H 0.642389667 2.7196811017 1.5464078552
H 3.0933487052 2.8729968582 2.0242677271
H 3.4266638529 2.9457462079 0.2791568489
H 2.572149225 4.2745343612 1.075287142
H 0.1610024563 -2.1619432103 -2.5016444918
H -0.0054796658 -0.4059926179 -2.1555949744
H -0.5796175886 -0.8113998476 3.2627948107
H -2.3372598259 -0.7188566352 2.9477008111
H -2.2292388604 -2.7444733147 1.5461739647
H -0.4685436867 -2.8057928757 1.7116812501
H -1.5027663705 -3.0909789023 3.1212664316
H -4.3163627635 0.9144384725 -0.8729074332
H -4.6075384359 -0.8436391828 -0.8683288833
H -5.9034934177 -0.6181533567 1.2562031507
H -5.6208158908 1.1280633374 1.2484363223
H -6.6076809475 0.3870256677 -0.0205576405
*
