! pbe def2-sv(p) def2/J RI DEFGRID1 loosescf d4 GCP(DFT/SV(P)) printgap
%output
    printlevel normal
end
* xyz 0 1
C 3.0393742323 -3.7862136749 0.3000107996
C 2.7539268943 -2.3352055993 0.6296932689
O 2.3739485667 -1.6697786338 -0.5906224911
C 2.0917526386 -0.3901520254 -0.5391793979
O 2.1213058975 0.2860225098 0.4701374284
C 1.7353906787 0.1813649027 -1.8978833935
C 0.4021288428 0.9313625434 -1.8238729451
H 0.2878490199 1.5697663392 -2.7025849622
C 0.3147795914 1.7852113999 -0.5739694054
O -0.5167027352 1.5659086586 0.2955590001
O 1.1424817417 2.778723997 -0.5927306866
C 1.2488690924 3.6581128548 0.5520192228
C 2.6365609629 3.5233914797 1.1528912991
S -1.0332039379 -0.2007957253 -1.8535370834
P -1.6478100163 -0.4923377324 0.1499443059
S -0.5749802151 -1.0483235853 1.7065101637
O -2.9100928641 0.4323615656 0.504156631
C -2.9592184815 1.4224176373 1.5286840598
O -2.4701795158 -1.7648768372 -0.4161461238
C -3.2600941295 -2.5937895467 0.4348854294
H 2.1495120052 -4.252996455 -0.1117187848
H 3.8424101188 -3.8519256634 -0.427941523
H 3.3288250248 -4.3070755144 1.2063590714
H 3.6327501821 -1.8257373979 1.0369945807
H 1.9337049115 -2.2307137239 1.348364556
H 1.6756960402 -0.6189382058 -2.6330005432
H 2.5207651745 0.8877631983 -2.1744898122
H 1.0764142402 4.6629448938 0.1620515008
H 0.4756320801 3.3912611182 1.27566617
H 2.8032353304 2.4929945966 1.4586767907
H 3.3903868321 3.8017634725 0.4229714607
H 2.7160862233 4.1708495239 2.0195890725
H -2.7867253751 2.4044444758 1.0923561051
H -2.202561089 1.2168517631 2.2879317024
H -3.9565457437 1.3612395713 1.9596424967
H -3.4437284839 -3.5058887058 -0.1276727693
H -4.19879796 -2.0950204701 0.675129952
H -2.7128707518 -2.816030126 1.3542494641
*
