! pbe def2-sv(p) def2/J RI DEFGRID1 loosescf d4 GCP(DFT/SV(P)) printgap
%output
    printlevel normal
end
* xyz 0 1
C 4.0444381822 -0.1815258523 -2.3942796972
C 4.5604720243 -0.0249256649 -0.9772419781
O 3.7068321726 -0.6646172755 -0.0152502827
P 2.2489077513 -0.1365043941 0.3071167542
S 2.0574967672 1.8175584579 0.2317426361
O 2.1640655576 -0.8694598273 1.7070144469
C 1.0523911938 -0.7957917573 2.6153754194
C 1.2051465783 0.3769901721 3.5651966947
S 0.9541926671 -1.264889567 -0.9514914332
C 0.1730218983 0.068264414 -1.9200788787
S -1.6338768803 -0.0648005383 -2.0498249834
P -2.221761867 0.0645850754 -0.0093137076
S -4.0734118174 0.6169118978 0.3127046901
O -1.1282764989 0.9758206616 0.7028735347
C -1.4088603385 2.3594171148 0.9818054222
C -1.3817740466 3.2106465535 -0.2714705189
O -1.7611370002 -1.3064203699 0.6557945984
C -2.0636999101 -2.6134642376 0.1316796436
C -3.5180734955 -2.7810492257 -0.2555168215
H 3.1300157766 0.3965947723 -2.522075879
H 4.7911258195 0.1864649235 -3.0907371216
H 3.8379861691 -1.2275854188 -2.606614675
H 4.6515440356 1.0344100333 -0.7156261681
H 5.522403494 -0.5212862823 -0.8424354973
H 0.116395062 -0.7262686988 2.0557589235
H 1.0814114714 -1.7452824918 3.1540197478
H 0.3741667763 0.384027782 4.2633347958
H 2.1392372296 0.2943802374 4.1143213085
H 1.2091457071 1.3130212983 3.0106605136
H 0.5182056866 0.0019381642 -2.9490894075
H 0.4480154616 1.023685033 -1.4665416281
H -2.3873775004 2.4215365477 1.4676921616
H -0.6253298651 2.6576097046 1.6795362669
H -0.3947941946 3.1859863032 -0.7273653059
H -2.1228379066 2.8471175968 -0.9831196816
H -1.6207056309 4.2359842599 -0.0084734174
H -1.409599427 -2.795492529 -0.7273311088
H -1.788980607 -3.2858655956 0.9463510341
H -3.7675474577 -2.118748784 -1.0845219056
H -3.6907141196 -3.8085325209 -0.5595335929
H -4.1658440116 -2.5397597304 0.5843443246
*
