! pbe def2-sv(p) def2/J RI DEFGRID1 loosescf d4 GCP(DFT/SV(P)) printgap
%output
    printlevel normal
end
* xyz 0 1
C 5.3506896606 -2.2194705727 -0.8096832747
C 4.6631020323 -1.0596429719 -0.1070671293
O 3.2359116046 -1.2542438676 -0.0577466868
C 2.5204888651 -0.8877649426 -1.0993227572
O 2.9672676305 -0.3756418938 -2.1016885838
C 1.0460608125 -1.192424736 -0.8954284582
C 0.2188079051 -0.003422504 -1.3733624362
H 0.5563102569 0.2804593832 -2.376894581
C 0.3640312602 1.2039573284 -0.4662623445
O -0.5903216487 1.8785012906 -0.1300904974
O 1.6042233573 1.4185867417 -0.131489849
C 1.9125454338 2.4820879278 0.7990199858
C 2.1893059016 1.8925420852 2.1714048041
S -1.5539183501 -0.3777404457 -1.5448996813
P -2.1976871934 -0.1125888356 0.4456868836
S -1.0273929158 -0.3293127985 1.997161772
O -3.1117145742 1.1869590381 0.600907612
C -3.9433773531 1.6593765251 -0.4715823722
O -3.2682108576 -1.3187434923 0.3170939967
C -4.0571304107 -1.702104428 1.4469453791
H 5.042366022 -2.2609047502 -1.8517346647
H 6.4255947198 -2.0786932025 -0.7656760735
H 5.091597134 -3.1567839403 -0.3251061094
H 4.8664501215 -0.1179523129 -0.6245632944
H 4.9646418038 -0.9953442828 0.9385127942
H 0.8630838686 -1.4169957486 0.1564738891
H 0.7905209732 -2.065159077 -1.4996188714
H 2.7964417545 2.9692898256 0.3853302775
H 1.0693496792 3.1766773824 0.8270948129
H 3.0018299326 1.1740166662 2.1132460115
H 2.4592656224 2.6895630814 2.8558058564
H 1.3036481416 1.3840776175 2.5484149219
H -4.702372725 2.2785939125 0.0001439393
H -4.3979347031 0.8223676684 -1.0032943613
H -3.3367186121 2.2521731964 -1.1554197158
H -3.4071523485 -1.983622796 2.277324444
H -4.6442603385 -2.5547839185 1.1161542155
H -4.7072511257 -0.8829854947 1.7574776066
*
