! pbe def2-sv(p) def2/J RI DEFGRID1 loosescf d4 GCP(DFT/SV(P)) printgap
%output
    printlevel normal
end
* xyz 0 1
C 4.327270442 -1.7969416198 -1.2781560807
C 4.6552617357 -0.5258423028 -0.5217863627
O 3.6321622854 -0.1852252359 0.4277273407
P 2.1784479399 0.2948944738 -0.0163003727
S 2.1986607057 1.4049816337 -1.6405214633
O 1.6448967242 0.8673208371 1.3624840667
C 2.3023913974 1.8913987789 2.1367447201
C 2.2396055219 3.2465723688 1.4620212674
S 1.0188422995 -1.4574546675 -0.0972281065
C -0.0367898046 -1.1092693086 -1.5517091881
S -1.7765050018 -1.4577597251 -1.2432408545
P -2.3103354683 0.2292885538 -0.050899295
S -1.0773310386 1.7508445554 -0.1205843913
O -2.610646967 -0.2950716206 1.4225799995
C -1.595820316 -0.6535921195 2.3747938903
C -1.4389878817 -2.1606818143 2.4475517118
O -3.7436702731 0.6366983467 -0.5440887537
C -4.7900237961 -0.2599755012 -0.9983793673
C -5.089623861 -1.365969383 -0.0110858641
H 4.0889382256 -2.5994138573 -0.5847401922
H 3.4716585841 -1.6266689051 -1.9304374768
H 5.1797991323 -2.0833212038 -1.8854391946
H 4.7756225988 0.3126423602 -1.2153266242
H 5.5523709546 -0.6382477326 0.0884624483
H 1.7469167673 1.8927883243 3.0764037681
H 3.3356989377 1.5835688094 2.3142476993
H 1.2113836708 3.4762429571 1.18759643
H 2.6116863 4.0079425637 2.1399386293
H 2.8422027549 3.2505584028 0.5553557851
H 0.2568185358 -1.7747409609 -2.3594210405
H 0.0975442318 -0.0608228268 -1.8309066058
H -0.6540740981 -0.1623539629 2.1060987187
H -1.9487303567 -0.2474305668 3.3250100143
H -1.075813968 -2.5573768034 1.5021409829
H -0.7215255077 -2.4039863509 3.2244127989
H -2.3947383861 -2.6200732028 2.6826052031
H -5.6430194217 0.4072784469 -1.1307917369
H -4.4853755989 -0.6709448149 -1.9638361302
H -5.9474320113 -1.9303589873 -0.3635630797
H -4.2361322717 -2.0359797165 0.0715107739
H -5.3098872518 -0.9478051567 0.9675387119
*
