! r2scan-3c def2/J RI DEFGRID2 scfconv6 printgap
%output
    printlevel normal
end
* xyz 0 1
C 4.5447392113 -2.202835659 0.5873927445
C 4.7333822001 -0.7097992765 0.4134375288
O 3.5341916923 0.0237253148 0.720186213
P 2.2360187197 -0.0421707085 -0.2003640985
S 2.6474805377 -0.0919284897 -2.1217040905
O 1.4332015027 1.2165412624 0.346939769
C 1.7602513707 2.5616273759 -0.0650292696
C 0.8045858121 3.0415595918 -1.1398087224
S 1.0877499859 -1.586554227 0.6311768226
C -0.1099746423 -1.796500926 -0.7266579259
S -0.803072752 -0.2513109468 -1.3746350097
P -2.1264466869 0.2584244114 0.1907247903
S -3.1322030318 1.9235993215 -0.030185815
O -1.1303460537 0.1991269862 1.4193952174
C -1.4152329224 0.8492307971 2.6725878031
C -2.5324697963 0.1567815246 3.4239699054
O -3.0144434508 -1.0467622982 0.4367160393
C -4.2791929401 -1.2376530818 -0.2166109688
C -4.1186102696 -1.5203283481 -1.6970925282
H 3.8490674051 -2.578211812 -0.1617667785
H 5.5002694088 -2.7020535748 0.4629621125
H 4.1470828217 -2.4210236508 1.5752539833
H 5.0267461747 -0.47629265 -0.6151855978
H 5.4703947917 -0.3101195728 1.111182088
H 1.6723897237 3.1610474349 0.8428579568
H 2.7936183317 2.5870754658 -0.4228500171
H -0.2243133486 2.9708467475 -0.7916524472
H 1.0263561252 4.0757167467 -1.3825924251
H 0.9076616812 2.4341448284 -2.0370414871
H -0.9033606666 -2.4285878919 -0.3348640198
H 0.3885646618 -2.2608342633 -1.5757039545
H -0.4679791251 0.7973029663 3.2117815809
H -1.6722049276 1.8942103343 2.4702516501
H -2.3112150083 -0.9018037515 3.5318341164
H -2.6373404881 0.6073632736 4.4059888352
H -3.4695377407 0.2701458659 2.8807140729
H -4.7253349272 -2.0822175067 0.3103938755
H -4.8863604052 -0.3395364893 -0.0641840567
H -5.0931337047 -1.7191305066 -2.1314492781
H -3.6809349394 -0.6554277305 -2.195240383
H -3.4731809884 -2.3802104881 -1.8564932638
*
