! r2scan-3c def2/J RI DEFGRID2 scfconv6 printgap
%output
    printlevel normal
end
%cpcm
    smd true
    smdsolvent "water"
end
* xyz 0 1
C 2.7749666235 -1.3915985455 -0.0001369018
C 1.5784664928 -0.6980940262 -0.0001485677
C 1.5784713402 0.6980809621 -8.12133e-05
C 2.7749590194 1.3916014917 4.60401e-05
C 3.9767980748 0.6950558522 7.88624e-05
C 3.9767888323 -0.6950394741 -3.23788e-05
Cl 5.4631932859 -1.5688469998 -4.39926e-05
Cl 5.463188358 1.5688460488 0.0002574593
O 0.4100377713 1.4242764262 -0.000137819
C -0.7431813552 0.6990787809 -0.0001190069
C -0.7431821032 -0.6990842383 -0.0001225285
C -1.9510866127 -1.3892835139 -2.47142e-05
C -3.1620451103 -0.6952469951 5.19516e-05
C -3.1620417788 0.6952478601 5.5777e-06
C -1.9510849889 1.389287499 -7.74244e-05
Cl -1.9225286564 3.1042657377 -0.0001353832
Cl -4.642277964 1.5599723208 6.76085e-05
Cl -4.6422743035 -1.5599663037 0.0002060415
Cl -1.922537372 -3.1042695368 1.7403e-06
O 0.4100395903 -1.4242833604 -0.0002184893
H 2.7593358829 -2.4683101219 -0.000216636
H 2.7593028359 2.4683082717 0.0001162531
*
