! r2scan-3c def2/J RI DEFGRID2 scfconv6 printgap
%output
    printlevel normal
end
* xyz 0 1
C 5.4700867015 -1.2704403287 -1.262140181
C 4.0612139949 -1.725320413 -1.5909952428
O 3.2057182783 -1.6188774009 -0.4349681841
P 2.2922292822 -0.346855315 -0.1590395364
S 3.1950244253 1.3985323953 -0.1610447879
O 1.6098942641 -0.7696316825 1.2022650875
C 2.1019944052 -0.3583551023 2.5005716835
C 0.9667504493 0.2554913236 3.294692871
S 0.7169043953 -0.5863975347 -1.5430180987
C 0.0504032529 1.0955381386 -1.3927880864
S -0.7620004805 1.3933072762 0.1890942598
P -2.6298585926 0.4192001911 -0.2024431199
S -2.9917429843 0.1003184392 -2.1011263837
O -3.7540671539 1.3393158824 0.4000614527
C -4.0614959267 1.5072983852 1.8064342476
C -2.9007851918 2.0786048717 2.5919268572
O -2.6816566549 -0.8166373633 0.8025845441
C -1.7526025145 -1.9106768171 0.8511748066
C -1.9220876945 -2.865667583 -0.3130860897
H 5.4738281063 -0.2152499439 -0.9977212861
H 5.8606666469 -1.8427800526 -0.4254935774
H 6.1058644402 -1.4199928143 -2.1288010673
H 4.0358526823 -2.7840603577 -1.8553553751
H 3.6387226599 -1.1364568472 -2.4101249557
H 2.4890902742 -1.2590768414 2.9801312658
H 2.9151938829 0.3607780276 2.3603282048
H 0.6078992225 1.1538934066 2.7978451794
H 0.1477413911 -0.4524122482 3.3857148807
H 1.3277318443 0.5153309242 4.2844865287
H -0.6715743086 1.2150823332 -2.2011694601
H 0.8669100085 1.8136331236 -1.4682095248
H -4.9126371383 2.1897342374 1.7923914386
H -4.3675538435 0.5385832658 2.2051852858
H -2.5632454132 3.0117703905 2.1481401842
H -3.2190168184 2.2625979515 3.6133212374
H -2.0688353398 1.3767487766 2.6025720597
H -0.732649548 -1.5156473501 0.8850111245
H -1.9839088345 -2.4020455935 1.7986878093
H -1.2610810832 -3.7155371646 -0.1763231734
H -2.9507854498 -3.2123162654 -0.368557505
H -1.6708883 -2.37408233 -1.2511251113
*
