! pbe def2-sv(p) def2/J RI DEFGRID1 loosescf d4 GCP(DFT/SV(P)) printgap
%output
    printlevel normal
end
* xyz 0 1
C 4.5221956464 -1.5297585069 1.0921862403
C 4.0356586218 -0.0945330598 1.0833475073
O 3.5548148992 0.2827405452 -0.2311000425
P 2.0184643832 0.3269190035 -0.6249196109
S 1.7933830844 1.033279575 -2.431931557
O 1.2701329487 1.1196755366 0.5511748635
C 1.1232575211 2.5482787902 0.5177605003
C 2.4333467424 3.2563052851 0.7937704356
S 1.3432030018 -1.6241936137 -0.2472213511
C -0.1640777184 -1.6660119594 -1.2719756996
S -1.6591752314 -1.9735180034 -0.3137769008
P -2.0975429683 0.0306385132 0.2557500706
S -1.6897753761 1.3915944092 -1.0940964808
O -1.3396122822 0.3654578422 1.5960627659
C -1.459948101 -0.4082924757 2.8189496572
C -0.2299194464 -1.2685496534 3.0290846831
O -3.5949570713 -0.0805189921 0.7758647274
C -4.6791131 -0.7187572505 0.0755492481
C -4.8777651106 -0.1721510117 -1.3222635513
H 3.6965771897 -2.2168589807 0.9215327259
H 5.2643960708 -1.6728122952 0.3119100556
H 4.970560054 -1.7436517072 2.0573184046
H 4.8551909981 0.5993454635 1.2799645305
H 3.236982826 0.0594251211 1.8131188393
H 0.7244726465 2.8342930194 -0.4615030021
H 0.3717138092 2.7547388308 1.2820711017
H 3.1502566178 3.0226422085 0.0069691134
H 2.2617292788 4.3281233508 0.8051197099
H 2.8392999214 2.9459273508 1.7531549361
H -0.0656870419 -2.4976570148 -1.964758838
H -0.2555415388 -0.7153316348 -1.8063676383
H -1.5578615733 0.3422888824 3.6049971881
H -2.368247885 -1.0118178856 2.7737946116
H 0.6652541567 -0.6554578438 2.9640694197
H -0.2807940219 -1.7238389856 4.012918328
H -0.1687098451 -2.0526654326 2.2782073964
H -4.4808630235 -1.7935594063 0.0459501298
H -5.5448867676 -0.5164655767 0.7086553315
H -4.0093066796 -0.393343636 -1.9412156664
H -5.7550969137 -0.6298743184 -1.7676830347
H -5.0092206583 0.9070372236 -1.2932439779
*
