! pbe def2-sv(p) def2/J RI DEFGRID1 loosescf d4 GCP(DFT/SV(P)) printgap
%output
    printlevel normal
end
* xyz 0 1
C 2.7091200422 -4.0339751377 0.0837165271
C 2.7524363655 -2.5612128233 0.4374921602
O 2.3929776365 -1.8120958097 -0.7400719428
C 2.1624160966 -0.5275057024 -0.6189303007
O 2.2297324514 0.095847541 0.4229720532
C 1.8010401058 0.1259602908 -1.9389214744
C 0.5098616974 0.9341582385 -1.7812446918
H 0.3954390744 1.6214900009 -2.6222055918
C 0.5134717517 1.7234910754 -0.4878194585
O -0.3121865814 1.5228708366 0.3906837851
O 1.427583107 2.6409612482 -0.4623146743
C 1.5815512198 3.4344352713 0.7365881684
C 0.5972166103 4.5913610125 0.7573048058
S -0.9784094661 -0.1269866156 -1.8066415762
P -1.5441442029 -0.4621457769 0.2059451045
S -0.4600029568 -1.1246173081 1.7131398655
O -2.7539261613 0.5031874091 0.6276700626
C -2.7288572111 1.4645718219 1.6795608413
O -2.4386957936 -1.6765676513 -0.3793910309
C -3.2404627364 -2.5013814103 0.4642872671
H 1.7029037218 -4.3127456363 -0.2156198799
H 3.3920984366 -4.239993067 -0.7347945142
H 2.996524537 -4.6175635803 0.9516770973
H 3.7528813076 -2.2448880987 0.7475434264
H 2.0464373507 -2.3103887709 1.2365623128
H 1.6801871014 -0.6327369538 -2.7096856202
H 2.6128983769 0.8062280064 -2.204272454
H 1.4485891026 2.7773062204 1.6000824687
H 2.6117061342 3.785930641 0.6862921724
H 0.7174739001 5.201468986 -0.1334370203
H -0.42381003 4.2194253716 0.7996007369
H 0.7836305572 5.1995191124 1.6360358341
H -1.9525200754 1.2124134014 2.4037713797
H -3.7110753283 1.4276739134 2.1464679279
H -2.5381375722 2.4517423864 1.2628748672
H -4.1528123249 -1.9746031433 0.7430246119
H -2.681148308 -2.7741394387 1.3625576547
H -3.4731461669 -3.3872486406 -0.1216150237
*
