  23
        -34.50128930
 C          4.7520532359        0.7371517612        0.3562051155
 C          3.4850295941        0.4943434996       -0.4553894599
 C          2.4133795258       -0.2189473355        0.3661447920
 C          1.1433990692       -0.4673965949       -0.4438436067
 C          0.0814413676       -1.1934187492        0.3802429252
 C         -1.2058627494       -1.4079976110       -0.4102202352
 O         -1.8002127434       -0.1692352224       -0.8164047928
 N         -2.5371236362        0.5000666884        0.0975207327
 O         -2.6762247320        0.0148974030        1.1782573401
 O         -2.9823983167        1.5321458161       -0.3031372317
 H          5.5005905895        1.2457003113       -0.2462648758
 H          4.5353514749        1.3530332720        1.2262419010
 H          5.1703277841       -0.2058712494        0.7006437730
 H          3.7272645156       -0.1084810315       -1.3332043513
 H          3.0921400845        1.4503078905       -0.8090891270
 H          2.1727763044        0.3856020816        1.2438554974
 H          2.8084325199       -1.1733393382        0.7207743791
 H          1.3878243495       -1.0653987036       -1.3236877524
 H          0.7458075255        0.4877026996       -0.7948030690
 H         -0.1386670928       -0.6266933805        1.2873432569
 H          0.4520020363       -2.1725305544        0.6824403002
 H         -1.0087184775       -1.9120153242       -1.3557064783
 H         -1.9316058193       -1.9745025100        0.1792992151
