! pbe def2-sv(p) def2/J RI DEFGRID1 loosescf d4 GCP(DFT/SV(P)) printgap
%output
    printlevel normal
end
* xyz 0 1
C 5.0395083485 -0.4666810459 -2.6019369777
C 3.5676729367 -0.8203326597 -2.5094938216
O 3.1877014938 -0.8530933561 -1.123249888
P 1.8450467208 -0.2224066544 -0.5365843477
S 1.3274491757 1.3917499094 -1.5314884597
O 2.2036675568 -0.0799985115 0.99510035
C 2.9371378657 1.0647875702 1.4870153398
C 2.7413925015 1.1330461719 2.9862671055
S 0.6162128493 -1.9402728351 -0.4569084684
C -0.2651035364 -1.8349581118 1.140373114
S -2.0448592956 -1.5973312564 0.9579996208
P -1.9648918415 0.4685197248 0.4656041782
S -0.6462588008 1.5078329057 1.4673126185
O -3.484044751 0.9221320372 0.5466008957
C -4.3782740781 0.6574530204 1.6462254196
C -3.8354466077 1.1373609522 2.9754228413
O -1.6940719655 0.565693588 -1.0827116859
C -2.5544806635 -0.0459203579 -2.079935658
C -1.6854077558 -0.6345083588 -3.1719886049
H 5.3482683502 -0.501900975 -3.6414685792
H 5.2083272944 0.5343700808 -2.2133184603
H 5.6284716317 -1.1744321512 -2.0256813421
H 3.368745273 -1.812126545 -2.9217085513
H 2.9509367622 -0.0768106827 -3.0260781624
H 3.9873519571 0.9266819202 1.2196137953
H 2.5516229929 1.9629107017 0.992290661
H 3.0614072248 0.2023382556 3.4454635839
H 3.3288226031 1.9545763867 3.3824266006
H 1.6915321719 1.3040084363 3.2124195326
H 0.152429047 -1.0140268573 1.7235810686
H -0.1297559889 -2.7920089423 1.6364159775
H -5.2871387115 1.1936759823 1.3678811401
H -4.5725484756 -0.4181456871 1.6730236664
H -2.938731659 0.5788507898 3.239532391
H -3.5780692222 2.1926900037 2.9218878374
H -4.58584388 0.9883476489 3.7450063871
H -3.1671892783 -0.8137718993 -1.5984859921
H -3.1967785339 0.7487003018 -2.4630390057
H -2.3183741609 -0.9868728277 -3.9797094255
H -1.0061166129 0.1262544027 -3.5491997006
H -1.0976652974 -1.4649605156 -2.7868420878
*
