! pbe def2-sv(p) def2/J RI DEFGRID1 loosescf d4 GCP(DFT/SV(P)) printgap
%output
    printlevel normal
end
* xyz 0 1
C 2.3720645245 -3.4972255531 -0.2608520175
C 2.9664262129 -2.1485731508 0.1111316395
O 2.1680001592 -1.0729247939 -0.4177845153
C 2.3519350155 -0.7182433766 -1.6813687016
O 3.2019986904 -1.1896188093 -2.4010061357
C 1.3922809784 0.36621498 -2.1242008051
C 0.2867010647 0.6461737873 -1.1175009776
H -0.3233945067 1.493035336 -1.4511205534
C 0.8172001743 0.9800274368 0.2624234937
O 0.312389001 0.5480059253 1.2798529563
O 1.8265270302 1.8058658398 0.2254831748
C 2.3769961927 2.2415226277 1.4872774779
C 3.4911772934 3.2259219293 1.1959715409
S -0.8330305417 -0.7857707873 -0.9360988629
P -2.1634291004 0.0487580135 0.4910405315
S -2.3447169581 1.9982065358 0.5098084744
O -3.5291882298 -0.6822822872 0.0481770925
C -4.1832742304 -0.3589528531 -1.181090327
O -2.0126457645 -0.6148782956 1.9167935323
C -1.6217851015 -1.9875479997 2.0967923452
H 1.3325274001 -3.5484414982 0.0529947831
H 2.4210599864 -3.6408575985 -1.3374603973
H 2.9353670052 -4.284793024 0.2283900339
H 3.9832862133 -2.0505671569 -0.2794522709
H 2.9556667533 -1.9912700475 1.190419856
H 0.9668148016 0.0642013234 -3.0824267044
H 1.9723129013 1.2777740506 -2.2858650009
H 1.5700473058 2.6944424387 2.0718090305
H 2.7389033891 1.3593204486 2.0237513018
H 3.1012610346 4.0776426421 0.6469878166
H 3.9167974278 3.5694800755 2.1327913977
H 4.2664378431 2.7493004928 0.6036927387
H -5.1643119465 -0.8231970714 -1.1228313535
H -3.6157257024 -0.7605541474 -2.020632094
H -4.2797522078 0.7238269863 -1.2791252477
H -0.5629799639 -2.0909502262 1.8588268188
H -2.2220320088 -2.6400957491 1.4643271536
H -1.7978297243 -2.1971188852 3.1486225338
*
