! pbe def2-sv(p) def2/J RI DEFGRID1 loosescf d4 GCP(DFT/SV(P)) printgap
%output
    printlevel normal
end
* xyz 0 1
C 2.9538930815 -1.8879564292 -2.4029519634
C 2.1778537011 -0.5964088578 -2.5392019143
O 2.4784649996 0.3502861424 -1.4876270721
P 2.3782333588 0.1024245577 0.0621367738
S 2.1957762966 1.7575242791 1.0943210034
O 3.7614928137 -0.6483493244 0.3312538998
C 4.3821714293 -0.7194631821 1.623418063
C 3.5581206438 -1.5075100107 2.6222806095
S 0.9030005648 -1.3955075599 0.3797840097
C -0.1627603197 -0.5496910998 1.5957799603
S -1.9204458786 -0.7555251741 1.2589459187
P -2.2107045581 0.6571605194 -0.3111588515
S -0.591091177 1.2411683916 -1.2565383047
O -2.9103143697 1.9397109861 0.2837298143
C -4.2975102391 2.0460272139 0.6880769775
C -4.6392016833 1.1478046042 1.8584873239
O -3.3822873814 0.0228004681 -1.1736422996
C -3.4245934003 -1.3392537653 -1.644179916
C -2.1511963079 -1.7618465371 -2.3455814448
H 2.6546450877 -2.4132041167 -1.4971182174
H 2.7451117102 -2.5175089672 -3.262203497
H 4.0197481955 -1.6808659473 -2.3542798352
H 1.0989017955 -0.773260641 -2.5321206978
H 2.447908554 -0.0509738719 -3.444594118
H 5.3407212979 -1.2004547472 1.4234459945
H 4.5460641969 0.301170884 1.9841102218
H 4.1364188191 -1.6486191023 3.5297090444
H 2.6518060327 -0.9550795128 2.8669781791
H 3.2870489526 -2.4765582108 2.2111746831
H 0.1040450658 0.5105370407 1.6039295737
H -0.0025343383 -1.0052565418 2.5700257858
H -4.3969038361 3.1007583631 0.9499856917
H -4.9215138413 1.8183516217 -0.1778708891
H -3.9576686271 1.3272674945 2.6860968805
H -5.6536780329 1.3624644101 2.1799747792
H -4.5726148381 0.100522805 1.5707528939
H -3.6247019177 -1.9870951276 -0.7866832704
H -4.2772087016 -1.3470806777 -2.3253706924
H -1.3219977618 -1.7854912399 -1.6386803089
H -2.282229021 -2.7544711903 -2.7639821751
H -1.9079855536 -1.0624967953 -3.1425723755
*
