! pbe def2-sv(p) def2/J RI DEFGRID1 loosescf d4 GCP(DFT/SV(P)) printgap
%output
    printlevel normal
end
* xyz 0 1
C 4.0562301424 -1.7828260375 1.0412115056
C 4.0101380244 -0.3762082221 0.4784143869
O 2.659014155 0.0672652418 0.2650214043
P 1.8249132966 -0.3564447468 -1.0243881063
S 2.8714307762 -0.4884903252 -2.6740903836
O 0.6599354392 0.7337315562 -1.0550878799
C 0.8432707701 1.9802293301 -1.7601057467
C 1.8566861829 2.8742574687 -1.0793756458
S 0.7629375017 -2.1031236737 -0.5489790636
C 0.2055977265 -1.837010775 1.185971245
S -0.0111017349 -0.1218898098 1.6958460604
P -1.8066348617 0.3823218484 0.6939359246
S -2.1114528847 2.2717751651 0.2775575701
O -2.9641198125 -0.2755597869 1.581913448
C -3.6025736996 0.4312084673 2.6541007214
C -2.6666131737 0.6585496643 3.8246026873
O -1.7772492157 -0.6418077731 -0.5147357664
C -2.510820164 -0.4088439004 -1.7297301739
C -4.002570986 -0.5638828355 -1.5223848388
H 3.6259011855 -2.4855309923 0.3287237071
H 5.0897994392 -2.058722857 1.2244755605
H 3.5030012537 -1.8318427908 1.975266228
H 4.5487316455 -0.3212133225 -0.4738752276
H 4.4205144416 0.3507145038 1.1805774809
H 1.1483925911 1.7513108247 -2.7862245411
H -0.1500212672 2.4336178007 -1.7573279804
H 1.8703601509 3.8383419493 -1.5779729645
H 1.5882784994 3.0126646506 -0.0345890995
H 2.8481358853 2.4279407626 -1.1385495779
H 0.9578855868 -2.2494781835 1.8536659125
H -0.7351182704 -2.3758296704 1.2695916627
H -3.9702353754 1.387525896 2.2674445994
H -4.4447135241 -0.2058023901 2.9281140738
H -3.2144548942 1.1259948479 4.6364974014
H -2.2483358268 -0.2843301392 4.1666400365
H -1.8501532121 1.3156472585 3.5244673897
H -2.2715718272 0.59498102 -2.0958795082
H -2.1144351201 -1.1551491194 -2.4210918582
H -4.220696746 -1.5305859489 -1.0766599888
H -4.3677338836 0.2216170098 -0.8621353238
H -4.5072909412 -0.483586142 -2.4799523195
*
