! pbe def2-sv(p) def2/J RI DEFGRID1 loosescf d4 GCP(DFT/SV(P)) printgap
%output
    printlevel normal
end
* xyz 0 1
C 3.4861494051 -3.0390285844 0.5349779161
C 2.8811560449 -1.7255791547 1.0033506788
O 2.6620652103 -0.8315180483 -0.1045811288
C 1.5857105625 -0.9883859021 -0.8451867193
O 0.7247174733 -1.8237172774 -0.6538124313
C 1.5247586904 0.0252943763 -1.969798222
C 0.2948412179 0.9229808138 -1.8074564365
H 0.227407765 1.6057291984 -2.6591891078
C 0.3378948894 1.7397890077 -0.5323733575
O -0.6303868115 1.8581087243 0.1986116864
O 1.5007633474 2.275890242 -0.3121225245
C 1.6866351685 3.0231695436 0.9115677499
C 3.1634351021 3.3363285933 1.0367782777
S -1.2800199204 -0.0057069594 -1.8292358005
P -1.7512828224 -0.3579987154 0.2164326199
S -0.5633291041 -0.5430040598 1.7805121452
O -3.0420489876 0.5381617538 0.4671749113
C -3.154075202 1.5793586536 1.436006053
O -2.6113643039 -1.6945456347 -0.0028874522
C -2.0338825174 -2.9789962055 -0.2310986659
H 3.7003227384 -3.6595605019 1.3986915396
H 2.7867278991 -3.5649258402 -0.1109660276
H 4.4062607218 -2.8528326398 -0.0121494953
H 3.5643183298 -1.1826434874 1.6561292398
H 1.9283092409 -1.8880684501 1.516013117
H 1.4353323364 -0.5137926663 -2.9130915915
H 2.4282611469 0.6332999241 -1.9563252721
H 1.0790446517 3.9305567827 0.8521803079
H 1.3209982967 2.412176558 1.7429972578
H 3.7372859791 2.4151448173 1.0706410091
H 3.4922955658 3.9270037393 0.1874909239
H 3.3321659232 3.8958356503 1.9505570332
H -2.9699220576 2.5386937598 0.9552580869
H -2.4324877203 1.4292046233 2.2414490939
H -4.1700076426 1.5244087212 1.8206669067
H -1.5838018106 -3.0221531895 -1.2225854482
H -2.85553922 -3.6857681571 -0.146681214
H -1.2685915892 -3.18594323 0.5183501763
*
