! r2scan-3c def2/J RI DEFGRID2 scfconv6 printgap
%output
    printlevel normal
end
%cpcm
    smd true
    smdsolvent "water"
end
* xyz 0 1
C 1.1253704474 -1.7262450929 3.026488731
C 1.8082340153 -0.3915339578 2.8025652253
O 1.4075087951 0.1806172642 1.5340933228
P 2.2928709994 0.0248350392 0.2302472926
S 3.0859663198 -1.740635477 -0.1085685991
O 3.3588516974 1.1859202644 0.4463585848
C 4.579635469 1.2602010772 -0.3097366986
C 4.325250586 1.5978301842 -1.7645066272
S 0.9386346614 0.7670357662 -1.2080457502
C 0.1052424935 -0.8159133696 -1.5082924521
S -0.9542654322 -1.322862903 -0.1382143384
P -2.4312111896 0.1921590421 -0.432373026
S -2.7960535951 0.6652852486 -2.2942872424
O -1.9649936256 1.4755945061 0.3529695515
C -1.6903651696 1.4929860247 1.7760442173
C -0.8142061429 2.6948881222 2.0612266348
O -3.6315885113 -0.3086549686 0.4821248988
C -4.2145461207 -1.6257263926 0.4496703058
C -4.6740075039 -2.0308587843 -0.9348804148
H 1.4410714525 -2.4422341856 2.2707403192
H 1.3935979097 -2.1045788356 4.0075862198
H 0.0462784541 -1.6156768546 2.9650957545
H 2.8957846699 -0.5008532923 2.8204939723
H 1.5022871057 0.3462933139 3.5459672528
H 5.1527524998 2.0407988107 0.1921764116
H 5.0991510486 0.300323979 -0.2233524734
H 5.2729395132 1.7536619081 -2.2698646732
H 3.7968849833 0.7780445514 -2.2501504462
H 3.7202664458 2.497685412 -1.8442778336
H 0.8501936284 -1.6006620634 -1.641952946
H -0.5037895919 -0.6811608266 -2.4028956296
H -2.6472057266 1.5562320032 2.2975333057
H -1.1873838306 0.5602917491 2.047211808
H -0.6538343082 2.774810708 3.1316345881
H 0.1447823523 2.5868877743 1.5600256178
H -1.2965828479 3.5984474587 1.699539037
H -3.4757309796 -2.334224769 0.8342135817
H -5.0541104966 -1.5499103015 1.1429209992
H -5.3523683393 -1.2855100016 -1.3432385623
H -3.8194896616 -2.1188530481 -1.6042516065
H -5.1813023939 -2.9886604789 -0.8805194624
*
