! pbe def2-sv(p) def2/J RI DEFGRID1 loosescf d4 GCP(DFT/SV(P)) printgap
%output
    printlevel normal
end
* xyz 0 1
C 4.08791736 1.4563896504 -1.6519919639
C 2.7444511843 0.8773746396 -2.0393020053
O 2.4461388566 -0.3085806021 -1.2824456188
P 2.1388682728 -0.2784373002 0.272816509
S 1.1995286968 1.3382879424 0.8775889106
O 3.5835530029 -0.4972002538 0.8950927081
C 3.8640939598 -1.0519628224 2.1944285464
C 3.0252226811 -0.4387811767 3.2960824791
S 1.2521512537 -2.1786809014 0.5098246458
C -0.339196221 -1.9015637003 -0.3059202392
S -1.5024557271 -0.9412120815 0.7156378205
P -2.1410733553 0.4341322631 -0.7790853985
S -0.8312904952 0.907180333 -2.1537941825
O -2.8258636028 1.6220874302 0.016299676
C -2.1393518211 2.6169823251 0.8007392411
C -2.1528518632 2.2493406744 2.270741016
O -3.3918318284 -0.2332383177 -1.4667268457
C -4.5542535377 -0.7044671725 -0.7347292545
C -4.5961696767 -2.2195748539 -0.7428655568
H 4.8650878477 0.7046511054 -1.7612031299
H 4.3103736746 2.3076085424 -2.2875626116
H 4.0588033227 1.78389398 -0.6130816892
H 2.7229940661 0.5394843144 -3.0762083873
H 1.9405212713 1.6047359202 -1.8836568391
H 3.7011828067 -2.1318662401 2.139448277
H 4.9260168296 -0.8439304307 2.3377542205
H 1.9721453786 -0.6706680726 3.138526087
H 3.3364155769 -0.8444388814 4.2533311732
H 3.1421716484 0.6425066199 3.3072494906
H -0.7545699038 -2.8913320133 -0.4762193351
H -0.1802922065 -1.3663288878 -1.2457624717
H -1.1151905225 2.7293130804 0.4342329038
H -2.6947987693 3.5382863202 0.6157602338
H -3.1719787812 2.0809139948 2.6066858393
H -1.5651929871 1.3506122369 2.4422064617
H -1.7131692991 3.0629892306 2.8380127366
H -4.5216162755 -0.3109026869 0.282904273
H -5.4072898138 -0.279306025 -1.2654315678
H -3.7750779476 -2.6276607319 -0.1588816578
H -5.5352337726 -2.5488836321 -0.309707138
H -4.5238346902 -2.5870112438 -1.7627882877
*
