! pbe def2-sv(p) def2/J RI DEFGRID1 loosescf d4 GCP(DFT/SV(P)) printgap
%output
    printlevel normal
end
* xyz 0 1
C 4.6507642632 -0.8276900184 -2.0860286953
C 3.3698549103 -1.6189777979 -1.9269444328
O 2.7781215136 -1.4172272216 -0.6265871107
P 2.099054051 -0.0483173243 -0.2134350251
S 1.2600568875 0.9413509235 -1.6900906713
O 3.2893394443 0.7458089918 0.479439062
C 3.2285804956 2.1533553713 0.7563159775
C 2.2881746225 2.4591229779 1.9042841684
S 1.0174304476 -0.7736509039 1.4566434973
C 0.0975158997 -2.1240869804 0.6652001485
S -0.9567691153 -1.5981297074 -0.7183997036
P -2.0944525824 -0.0940694018 0.2468061998
S -1.3755764436 1.6813830776 0.6882705055
O -2.5722524858 -0.9541766533 1.4859834698
C -3.0744565136 -0.3456652322 2.6942685001
C -4.4387953026 0.2745672772 2.4803929504
O -3.3958225997 -0.026883028 -0.6650145119
C -3.5217170543 0.8921599411 -1.7610600195
C -2.5928579152 0.5353068729 -2.9037842012
H 4.428771081 0.2386392184 -2.0820558795
H 5.3318526627 -1.0472965148 -1.2680869566
H 5.1200749707 -1.0871542556 -3.0297433184
H 3.5495855666 -2.6939664704 -1.968997189
H 2.6385585265 -1.330732238 -2.6889877933
H 4.2587303789 2.4198623063 0.9967789221
H 2.9088688054 2.6754270123 -0.1521113333
H 2.545105865 1.8587151652 2.773360535
H 2.3554692201 3.512122595 2.1577353445
H 1.2597148809 2.2373158458 1.6170348655
H -0.5189167021 -2.565446892 1.4449716495
H 0.7946929871 -2.8507562443 0.2542097922
H -3.1101353643 -1.1700041689 3.4074801293
H -2.3536832597 0.4076453932 3.0281984048
H -4.8242359274 0.6340435043 3.4292637459
H -4.3580223665 1.1134059481 1.7901869585
H -5.1238281906 -0.4585455788 2.0628745067
H -4.5699714274 0.8135872962 -2.0523186904
H -3.3089552379 1.9026264509 -1.3956173632
H -2.7392942676 -0.5000407744 -3.2015916017
H -2.7889057812 1.1872770499 -3.7488351127
H -1.5537391637 0.6670155462 -2.5979626951
*
