! pbe def2-sv(p) def2/J RI DEFGRID1 loosescf d4 GCP(DFT/SV(P)) printgap
%output
    printlevel normal
end
* xyz 0 1
C 2.5858628004 0.7431612356 -3.4128904111
C 2.9847431517 0.123163119 -2.09094208
O 2.2955567668 0.8485033386 -1.0398096855
P 2.0657963854 0.26476433 0.3994510373
S 1.0855089949 1.4664411753 1.5868282952
O 3.5801561412 0.0060901276 0.8453435866
C 3.9906774475 -0.1663439855 2.2108269772
C 3.4388652403 -1.4347162857 2.8302234894
S 1.2742305124 -1.7000053313 0.1257390159
C -0.1153214314 -1.6654692194 1.3009124242
S -1.7399536155 -1.8993795233 0.5292626279
P -2.0524716053 0.0357398517 -0.2531194896
S -0.7962379109 0.643395694 -1.6396523584
O -2.1345054082 0.828783196 1.1142454367
C -2.7912505519 2.0984382328 1.3090306418
C -2.2241308256 3.1886024442 0.4249728102
O -3.567505496 0.036001574 -0.7302799698
C -3.9490105952 -0.3424806498 -2.0639956815
C -3.7621106057 -1.826758639 -2.3001027079
H 2.8834770665 1.7872656066 -3.4408861584
H 3.0683529657 0.204110353 -4.2213943887
H 1.5061003401 0.6877483497 -3.531731902
H 4.0570384303 0.2093672751 -1.9039534988
H 2.6885489885 -0.9288547341 -2.0398813043
H 5.079786979 -0.1899048198 2.1504975676
H 3.6693578027 0.7116802195 2.7801058379
H 3.6471702963 -2.2894417351 2.191690778
H 3.9012593945 -1.5872759232 3.8001352016
H 2.362065937 -1.3449128716 2.9652334279
H -0.1024672896 -0.7123892156 1.8362566665
H 0.0051387246 -2.5090681621 1.97540036
H -3.8590080528 1.9583492957 1.1259945424
H -2.6130811328 2.3125058959 2.3642908446
H -2.6915670695 4.1360580781 0.6732371554
H -1.1488935093 3.2686620029 0.5756254057
H -2.4107123725 2.9611800342 -0.6240679608
H -4.9973675342 -0.0489282808 -2.1307077642
H -3.3504403042 0.2388020135 -2.7731920737
H -4.1586713876 -2.0897761922 -3.2753704332
H -2.7016076668 -2.0748132885 -2.2702675005
H -4.275329685 -2.3994458832 -1.5319474375
*
