! pbe def2-sv(p) def2/J RI DEFGRID1 loosescf d4 GCP(DFT/SV(P)) printgap
%output
    printlevel normal
end
* xyz 0 1
C 5.5387153197 -0.3379377668 -0.7098634674
C 4.2574642999 0.275226084 -1.2359675054
O 3.4219600396 0.7429808704 -0.1465205922
P 2.281746341 -0.1126177659 0.5277725902
S 1.5311584995 0.7934329717 2.0861214894
O 2.9848325492 -1.5034805627 0.8450181201
C 2.4226010564 -2.4484750335 1.7714796773
C 1.247930152 -3.1983750966 1.1753911898
S 0.9884306336 -0.6250364822 -1.1004059799
C 0.4653817334 1.0452558308 -1.5656899416
S -0.7307249387 1.7936227117 -0.4246761068
P -2.1737888081 0.2176274013 -0.4947686195
S -2.3052592372 -0.7188283538 -2.204610109
O -3.4707484979 0.945243624 0.0636180603
C -4.1097749784 2.0598155807 -0.5895348241
C -5.0655518845 1.6011706517 -1.6733408438
O -1.8258260973 -0.7763941569 0.6775152333
C -1.8495967218 -0.4016045829 2.0772887045
C -3.1461139689 -0.8446652185 2.7204433658
H 6.0544605573 0.3713261629 -0.0682583727
H 5.3214389595 -1.2356325823 -0.1378261237
H 6.1784857993 -0.5937055399 -1.54881336
H 3.6913611702 -0.4433466469 -1.8349524819
H 4.4611992705 1.1723835347 -1.8237067873
H 3.2501772808 -3.1224110725 1.9976515651
H 2.125207099 -1.9095929826 2.6772756997
H 0.9237645014 -3.9674540625 1.8692099949
H 0.4153126901 -2.5215577935 0.9866390721
H 1.5331517118 -3.6605714884 0.2336712267
H 0.0039536967 0.9435928475 -2.5474442454
H 1.3215300191 1.7160970672 -1.5935546606
H -4.6405748076 2.5698961568 0.2168774609
H -3.3412133791 2.7234726352 -0.995553867
H -5.5711591009 2.4655513018 -2.0915994044
H -4.5242306321 1.0872959353 -2.4645148385
H -5.8026935582 0.918974739 -1.2587620715
H -0.9892519771 -0.9080240713 2.5199341165
H -1.7031617776 0.6784815838 2.1636638667
H -3.1107484069 -0.6128203331 3.7801896275
H -3.9870835024 -0.3283310742 2.265416381
H -3.2778282933 -1.9150828965 2.5887184208
*
