! pbe def2-sv(p) def2/J RI DEFGRID1 loosescf d4 GCP(DFT/SV(P)) printgap
%output
    printlevel normal
end
* xyz 0 1
C 1.5490621114 -0.093594062 -3.3366956406
C 2.2759166158 0.137333356 -2.0297130274
O 1.5306284118 -0.5393760361 -0.9923907834
P 1.942410224 -0.4168596044 0.527002064
S 2.4544711734 1.3472605041 1.2249025942
O 3.1236880489 -1.4830468059 0.5887706829
C 3.9588508526 -1.6385498056 1.7534677186
C 5.2961003932 -2.1937163766 1.305726061
S 0.3669812089 -1.4014135063 1.4978589113
C -0.5697107247 0.0284091271 2.146278897
S -2.2590539157 0.094417561 1.5259684722
P -1.8118159426 0.6177199131 -0.4914188357
S -0.4732099233 2.0233293935 -0.7448776328
O -3.2563694538 0.8504821665 -1.1087605808
C -4.2872400563 1.6699656904 -0.52489934
C -3.8230059552 3.0812679189 -0.2341466527
O -1.3485171739 -0.6977204156 -1.222211317
C -2.1212314345 -1.92386766 -1.2419923228
C -2.85934386 -2.0633827387 -2.5572030553
H 1.4913865097 -1.1575486845 -3.5464720943
H 0.541241416 0.3090837298 -3.2682833758
H 2.0835473021 0.4093899911 -4.1358492142
H 2.3211293642 1.2028634893 -1.7788034563
H 3.2888222923 -0.2728127912 -2.0491105339
H 4.0711421934 -0.6609260706 2.2346700458
H 3.4520966751 -2.3221981655 2.4390777221
H 5.1500604753 -3.134512637 0.7829137047
H 5.78952633 -1.4918397041 0.6390027769
H 5.9213149407 -2.3580979677 2.177062573
H -0.0342216565 0.9444782559 1.8800412727
H -0.6462520142 -0.0823469365 3.2247942355
H -5.0793897056 1.6587617975 -1.2756045922
H -4.6323981287 1.18055393 0.3898123533
H -3.419816862 3.5420388323 -1.1330087323
H -4.6601595676 3.6693482636 0.1277182702
H -3.0417685172 3.0723025552 0.5247946478
H -1.3818346711 -2.716347356 -1.1085554631
H -2.8137891408 -1.9237815626 -0.3954385852
H -2.1556604385 -2.0427960284 -3.3847772701
H -3.3944127309 -3.007776494 -2.5644439144
H -3.5665249536 -1.2472375362 -2.6794134057
*
