! pbe def2-sv(p) def2/J RI DEFGRID1 loosescf d4 GCP(DFT/SV(P)) printgap
%output
    printlevel normal
end
* xyz 0 1
C 3.7855845164 1.3025005088 -1.8585357702
C 2.4180375394 0.6626487826 -1.9780116972
O 2.2295266483 -0.3673849971 -0.9939695658
P 1.9668954797 -0.0247897246 0.5483975653
S 0.93849143 1.5998338416 0.89175338
O 3.3761932144 0.081284282 1.2651469875
C 4.399307347 -0.9403989604 1.1639677006
C 4.4522994695 -1.766706967 2.4330255042
S 1.2320962457 -1.8957600231 1.1630748278
C -0.3256393417 -1.9669299015 0.2434022328
S -1.6563563728 -0.9664153068 0.9798281841
P -2.1115467363 0.3252875175 -0.6575701543
S -1.003433295 0.1268325102 -2.255429734
O -2.0835779839 1.8095887839 -0.1475550039
C -2.7728345251 2.253472061 1.048364369
C -2.2246424436 3.6166964926 1.4114541285
O -3.6843622236 0.1198441045 -0.8372500721
C -4.3601674006 -1.1442301872 -0.9593919259
C -3.8783849064 -1.9563608824 -2.143826486
H 3.8743690469 1.8059332384 -0.8960593139
H 4.5640970195 0.5485454821 -1.9413810255
H 3.9068989222 2.0340768604 -2.6511361886
H 2.2814837143 0.1491445947 -2.9310242166
H 1.6259298501 1.4096854291 -1.8599101068
H 4.1973396378 -1.5643655739 0.2898223721
H 5.3273666276 -0.3850293849 1.0163945988
H 4.598771623 -1.1174255639 3.2916627162
H 3.5258788998 -2.3212416083 2.5661049206
H 5.2797423205 -2.4658978732 2.3657685043
H -0.6347942166 -3.0082295758 0.2834822044
H -0.1636373403 -1.6321809024 -0.7857153783
H -3.8414111617 2.2883059291 0.8263387702
H -2.5867210428 1.5273983346 1.8455097478
H -2.4009591433 4.3181407913 0.6013183582
H -2.7125363809 3.9705129091 2.3135939948
H -1.1528105068 3.5448463836 1.5826213692
H -4.2221949011 -1.6973180028 -0.0257464004
H -5.4085321527 -0.8620214411 -1.0707826755
H -2.8356570506 -2.2398148427 -2.0098382656
H -4.4821922411 -2.8535319315 -2.2337017867
H -3.9577297288 -1.3745420971 -3.0589656016
*
