! pbe def2-sv(p) def2/J RI DEFGRID1 loosescf d4 GCP(DFT/SV(P)) printgap
%output
    printlevel normal
end
* xyz 0 1
C 3.2607629454 -4.443293229 -0.7977442221
C 3.9426113664 -3.2012653059 -1.3492227316
O 3.573317817 -2.0357751182 -0.5872322721
C 2.4780162939 -1.3849870524 -0.9265765033
O 1.7651335289 -1.6723110318 -1.8616689749
C 2.2405552392 -0.2044826958 -0.00257486
C 0.7901861453 0.240154266 -0.0801217797
H 0.489198464 0.3246610224 -1.1333256197
C 0.4944533113 1.5667630568 0.5838411745
O -0.5597590229 1.775782751 1.1552095215
O 1.4487974502 2.4401010007 0.4486872408
C 1.230548385 3.7658835916 0.9855999944
C 2.4774543353 4.585098749 0.7226417823
S -0.316334279 -1.0030566427 0.6864149554
P -2.1633264015 -0.0676738051 0.2398415094
S -2.2461386692 1.1573793957 -1.2978691754
O -3.0702037913 -1.3714053813 0.0106387842
C -2.8720701694 -2.2084500029 -1.1302054653
O -2.9015798051 0.339732569 1.5805048692
C -3.2319732357 1.6734035977 1.9761739284
H 3.5073362609 -4.5708233206 0.2525398732
H 2.1815199012 -4.3514017384 -0.8976769488
H 3.5939988897 -5.3136626252 -1.3532079893
H 3.664492334 -3.0385701589 -2.3943247507
H 5.0261009869 -3.263041971 -1.2476331621
H 2.8850833324 0.6165850896 -0.3238444318
H 2.5162832723 -0.4905616786 1.0118501337
H 0.3498520324 4.1898600427 0.4943243124
H 1.0204612907 3.6706959035 2.054685001
H 3.3334589241 4.1337099183 1.214537389
H 2.6705644592 4.6385921838 -0.3443977656
H 2.3313843255 5.588208541 1.1088811008
H -2.9492740572 -1.618251437 -2.0455922251
H -3.6640058272 -2.9515024498 -1.0885535397
H -1.8933668308 -2.6891119641 -1.0867481051
H -4.2322667346 1.6221128893 2.4007332333
H -3.2176901153 2.3419519681 1.1138665707
H -2.5098084748 2.0138457495 2.7154338914
*
