! r2scan-3c def2/J RI DEFGRID2 scfconv6 printgap
%output
    printlevel normal
end
%cpcm
    smd true
    smdsolvent "water"
end
* xyz 0 1
C 0.4663366462 -2.5429613121 2.0019397319
C 1.1857241024 -2.3020406112 0.6912011412
O 1.7725461463 -0.9896819713 0.7447892376
P 2.4368172397 -0.3448107424 -0.5533723401
S 3.6221569861 -1.5582995137 -1.532594023
O 3.0750452873 0.9805307101 0.0270825061
C 4.4341814624 1.0094545297 0.5170726395
C 4.5745133836 0.2416140494 1.8136532141
S 0.8407596406 0.4626209831 -1.6806323829
C 0.2935114032 1.7866859033 -0.549460194
S -0.4382262673 1.191018548 0.9879110525
P -2.2034383607 0.4166457622 0.1266675537
S -2.9918496453 1.4585086564 -1.3439308708
O -3.1193005517 0.090766553 1.3821166278
C -3.4312162511 1.0073332831 2.4480184001
C -3.9666351065 2.3335043996 1.9495440459
O -1.752402809 -1.0471602784 -0.2959454177
C -2.420168997 -1.7737630561 -1.3427393967
C -3.7900833792 -2.2384671627 -0.8961135953
H -0.3493496506 -1.8325204269 2.1116126525
H 0.0668461299 -3.5516938927 2.0088371581
H 1.1557178367 -2.4201493626 2.8317360895
H 0.492311095 -2.3457660889 -0.1548888319
H 1.9874418959 -3.0277203461 0.5224060075
H 5.089205516 0.5933675141 -0.2547539987
H 4.640589308 2.0723791814 0.64844494
H 4.4049364948 -0.8189014574 1.6337066164
H 5.5776702935 0.3775372447 2.2054849321
H 3.8481987435 0.5965786351 2.5400860901
H -0.4563550601 2.3448262057 -1.1124435574
H 1.1413730838 2.4113152011 -0.2855358037
H -4.1779661654 0.4710443072 3.0362937446
H -2.5259351901 1.1562609139 3.0431161431
H -4.8258278462 2.178246893 1.3012713734
H -4.2623287126 2.9439801013 2.7967165374
H -3.1993406945 2.8602796377 1.3837126764
H -2.4948061542 -1.1288945323 -2.2249431911
H -1.7556686454 -2.6116731349 -1.5596785539
H -4.2453459604 -2.8328963989 -1.6819124179
H -3.709080507 -2.8321227699 0.0102851038
H -4.419435608 -1.3723075889 -0.6938318717
*
