! pbe def2-sv(p) def2/J RI DEFGRID1 loosescf d4 GCP(DFT/SV(P)) printgap
%output
    printlevel normal
end
* xyz 0 1
C 1.6792000205 -2.9394717453 0.9257426523
C 1.6094687166 -1.5919029426 1.6151152624
O 2.6439217034 -0.6958612396 1.1785753603
P 2.7384826886 0.0175993051 -0.2434477427
S 3.0917032612 -1.0836964185 -1.8234855761
O 3.9449460265 0.9976614086 -0.0037702433
C 4.2439327235 1.7047773832 1.2250272141
C 3.1550301388 2.682115067 1.6128413814
S 0.9812465197 1.2366467468 -0.3907397092
C 0.1520494305 0.3755693755 -1.74321198
S -0.751414659 -1.0996115377 -1.1977300202
P -2.2186656363 -0.0666440078 -0.0751167584
S -2.8458498495 1.6266247698 -0.8515917508
O -1.5242678247 0.0462911113 1.3426654225
C -1.8669521366 1.0897494468 2.2786185725
C -3.259610576 0.8901696266 2.8367774952
O -3.2996717436 -1.1932897286 0.2118448151
C -4.152263064 -1.7447707424 -0.8106994847
C -5.4461842733 -0.9619373201 -0.9267900984
H 1.4658829324 -2.8382041231 -0.1367517956
H 2.6708968955 -3.3695328463 1.0403165916
H 0.9437074006 -3.6039525367 1.3676841723
H 1.7913810853 -1.6888485508 2.687478041
H 0.634816238 -1.1215417234 1.4527240249
H 4.4088169926 0.9663634008 2.0115537853
H 5.1789073085 2.2169945712 0.9930923469
H 2.9554270472 3.3726588818 0.7973379111
H 2.2347356261 2.1511458559 1.8506482023
H 3.4748734231 3.2422990366 2.4859972894
H 0.894153413 0.0368182437 -2.467322135
H -0.5494523924 1.0840567543 -2.1832124996
H -1.1024066979 1.0126093361 3.0524107678
H -1.7843946029 2.0548638981 1.7686838707
H -3.3503256117 -0.0997106718 3.2758675537
H -3.4595634312 1.6439247475 3.5917261109
H -3.9912482777 0.9874108306 2.0353326433
H -3.6129712092 -1.7583631518 -1.7623511802
H -4.336713962 -2.7700822116 -0.4846497905
H -5.2437373662 0.060840633 -1.2370978849
H -6.0849803072 -1.4348257647 -1.6657310746
H -5.9587820059 -0.9426127758 0.0309273421
*
