! wb97x-v def2-tzvp def2/J RIJCOSX DEFGRID2 scfconv7 GCP(DFT/TZ) printgap
%output
    printlevel normal
end
* xyz 0 1
C -3.083349535315053 -0.38701529706792487 0.013544012488460025
C -1.6186982451919294 -0.04850913100337286 -0.010432624884541749
C -1.1861781709460275 1.2808815101472846 -0.008606620474620177
C 0.1718500244649114 1.5783736536690025 -0.0012840604127395026
C 1.1480116007710153 0.574598631770285 0.0026790570741585386
C 0.7248401819982606 -0.7662823136997984 -0.00208726785569755
C -0.6462300520219074 -1.0483257085790973 -0.00955478699567936
C 1.694889645717541 -1.9184510973145694 -0.00042426983911002307
C 2.605950788370454 0.9496210556505783 0.0069215490513743734
H -3.662373184783812 0.3144350065791109 -0.5946170409455802
H -3.2632591290971003 -1.3998747346420837 -0.3570446454797967
H -3.48007769669151 -0.3337017022258196 1.0346589786281353
H -1.9166578040237072 2.085938596313267 -0.014370941389388147
H 0.4893606903695248 2.618181855646004 -0.0025277300996422083
H -0.9617795079322091 -2.090226275833672 -0.016570777326086566
H 1.5190217571631015 -2.572134997951115 -0.8617392846584536
H 2.735130786203292 -1.59322706781769 -0.032466489943782685
H 1.5627813283694347 -2.533062618338148 0.8971430554879335
H 3.1242273846006925 0.5518535080826413 0.8865665454178789
H 3.127015845373527 0.5600798108881675 -0.8748420206466229
H 2.720448287144817 2.036428754908257 0.011861702245366047
*
