! pbe def2-sv(p) def2/J RI DEFGRID1 loosescf d4 GCP(DFT/SV(P)) printgap
%output
    printlevel normal
end
* xyz 0 1
C 2.5657889831 -0.8546830126 -2.9160995991
C 2.7974876427 0.4757971497 -2.2286117893
O 3.2138180719 0.2827001167 -0.8634760036
P 2.2834239453 0.3321618642 0.4197418926
S 1.2876432953 1.9820202821 0.7633098075
O 3.3446561195 0.1245194414 1.5663888647
C 4.2507784448 -1.0090154242 1.6291329733
C 3.8592196122 -1.9247115681 2.7717284007
S 1.1525109776 -1.4694985502 0.3628750498
C -0.146532754 -0.9775976167 1.542433008
S -1.815836529 -1.3241690669 0.9453935224
P -2.0333193737 0.2647252558 -0.4647600378
S -0.7381369078 0.4202780534 -1.9199857741
O -2.0323204567 1.5980557091 0.3726322099
C -2.9232902702 1.8706739285 1.480617816
C -4.1006719677 2.707268323 1.0236852711
O -3.5583144198 0.1108119482 -0.8811216764
C -4.1816502047 -1.1161012864 -1.3091338523
C -3.4086802473 -1.8218342794 -2.4026511128
H 2.3577558681 -0.6736990303 -3.9653621402
H 3.446121076 -1.4841588841 -2.8227496852
H 1.710183959 -1.3632196854 -2.4781146738
H 1.894363483 1.0918328934 -2.2528221421
H 3.6234021535 1.0225649466 -2.6875699909
H 4.2359694596 -1.5344760466 0.6723824984
H 5.2358430345 -0.5689617208 1.7903794805
H 2.9031371711 -2.4004828044 2.5686167854
H 4.618510193 -2.6918563213 2.8852500968
H 3.7842313639 -1.3551535076 3.6938309887
H -0.0388693335 0.0934831152 1.7358089441
H -0.0355521957 -1.5613605723 2.452434004
H -3.2553916541 0.9229942791 1.9145428956
H -2.3040743688 2.4126661457 2.1987492108
H -4.7195587734 2.947963494 1.882368142
H -3.7457658986 3.6270682174 0.5666837938
H -4.6912938019 2.1596233003 0.2940193477
H -4.2896926728 -1.7620753911 -0.4335316378
H -5.1645986622 -0.7956762335 -1.6590343472
H -2.4367915883 -2.1423243309 -2.0291058277
H -3.9655009533 -2.6929134716 -2.7325086982
H -3.2478656266 -1.1544749226 -3.246267113
*
