! pbe def2-sv(p) def2/J RI DEFGRID1 loosescf d4 GCP(DFT/SV(P)) printgap
%output
    printlevel normal
end
* xyz 0 1
C 3.5852792697 -1.2276392237 -2.1081842446
C 4.0654311092 -0.1216011571 -1.1901701663
O 3.4738735045 -0.1990989522 0.1161916386
P 1.905779715 -0.0340331374 0.3567123572
S 1.1817876262 1.4572638469 -0.7205693625
O 1.8522586286 0.2027977757 1.9253698485
C 2.1626816914 1.4742183905 2.531970307
C 3.6562648326 1.711846546 2.6303738876
S 1.3484812581 -2.0673581817 0.3525436118
C -0.3295884544 -2.2820727959 -0.3572103467
S -0.7812542869 -1.0660791968 -1.6190419365
P -1.921815442 0.2007719141 -0.3743098149
S -2.4456538566 1.9642365454 -1.0416227119
O -1.0791993252 0.1312735119 0.97970927
C -1.3177403434 1.0822941453 2.0386530303
C -2.7325621238 1.0279416926 2.5732447689
O -3.1605439379 -0.7212394575 0.043454279
C -4.394234051 -0.720521406 -0.6894506308
C -4.2488343344 -1.3691957661 -2.0514824315
H 2.5231783359 -1.0987383342 -2.3205612715
H 4.1351680676 -1.1816772117 -3.0427301771
H 3.7374425192 -2.1986009968 -1.6437414328
H 3.8273869427 0.8585764334 -1.6167964886
H 5.1367047382 -0.1937134659 -0.997717727
H 1.6788342657 2.266948414 1.9509290658
H 1.7102598088 1.4135254881 3.5235890344
H 3.8337083816 2.6037727059 3.2234886516
H 4.137087716 0.8600308771 3.1034831542
H 4.0853600951 1.8524654942 1.6412052648
H -1.0682367514 -2.2685588611 0.440338135
H -0.2923180102 -3.2515012259 -0.8495326985
H -0.5920015384 0.7974834142 2.8015353779
H -1.0846951806 2.0819027369 1.6564539251
H -2.9888860222 0.0122143815 2.8626718798
H -2.8059514636 1.6810824627 3.4373211246
H -3.4326561969 1.3706170088 1.8125694624
H -5.0826781846 -1.274219445 -0.0496661029
H -4.7318198611 0.3157470119 -0.7947218216
H -3.5738725678 -0.7795531099 -2.6718776027
H -3.8481665162 -2.3747246006 -1.9552702137
H -5.2204211551 -1.412196118 -2.5329691315
*
