! pbe def2-sv(p) def2/J RI DEFGRID1 loosescf d4 GCP(DFT/SV(P)) printgap
%output
    printlevel normal
end
* xyz 0 1
C 2.6971352336 -2.2752377163 -2.6056678049
C 1.6840989872 -2.177528515 -1.4844880708
O 1.3529097913 -0.7892618641 -1.2116567408
P 2.0017476388 0.0394336711 -0.0348249006
S 1.377042787 1.8941322766 -0.0069293198
O 3.5572862144 -0.1569267933 -0.292925056
C 4.5563583981 0.6927656967 0.2983057487
C 4.6203144673 0.5463813846 1.8045673984
S 1.6465181966 -1.1182421732 1.7137467644
C -0.0815070423 -0.661160069 1.971682087
S -1.1934705073 -1.293976555 0.676856821
P -2.0453566175 0.5308131234 -0.0226218573
S -2.0065110473 2.0386040165 1.2190322801
O -3.5022051292 0.072536207 -0.4747646523
C -4.6289709336 0.068906174 0.4202822625
C -4.4829445495 -0.9406199593 1.5401861987
O -1.3628957278 0.8288969439 -1.4129614801
C -1.4264989441 -0.0874540001 -2.5336758551
C -2.4931040439 0.3428433623 -3.5188219489
H 2.8752997285 -3.3225056123 -2.8285673855
H 2.3224785347 -1.7780149501 -3.4961201241
H 3.6319678432 -1.8070726403 -2.3097447397
H 2.062090678 -2.6380530885 -0.5677974715
H 0.7330673143 -2.6376964506 -1.7597212601
H 5.4841779279 0.3712686883 -0.1770654155
H 4.334417374 1.727967356 0.0214484056
H 3.7159012461 0.9507887902 2.2567595116
H 4.7136796799 -0.5009403957 2.0806735441
H 5.4759367724 1.0975688117 2.18132616
H -0.1800692559 0.4276411007 2.0096004899
H -0.3715926272 -1.1137340913 2.9164345338
H -4.745515358 1.0779957439 0.8270660273
H -5.4725685343 -0.1704002841 -0.2288003821
H -4.2422944708 -1.9220020467 1.1394581563
H -3.6902710233 -0.6298898842 2.2188714757
H -5.4153560723 -0.9942391461 2.0928902224
H -0.4294801791 -0.0425223887 -2.9764202961
H -1.6180525898 -1.095311759 -2.154263054
H -2.3116714968 1.3659207947 -3.8371633572
H -2.4617376006 -0.3138731056 -4.3826121556
H -3.4759802139 0.2874425038 -3.0587903719
*
