! pbe def2-sv(p) def2/J RI DEFGRID1 loosescf d4 GCP(DFT/SV(P)) printgap
%output
    printlevel normal
end
* xyz 0 1
C 2.0730030048 -3.3438511221 0.7337242885
C 3.1596434402 -2.4061954302 0.2336984667
O 2.6994128694 -1.6622898381 -0.9113694771
C 2.1475420518 -0.4854170834 -0.7325464863
O 2.0011360265 0.0677901427 0.3390897464
C 1.7210770175 0.1549554039 -2.0377826101
C 0.4064171129 0.9040069734 -1.8302231752
H 0.2040024158 1.5516697963 -2.6867764046
C 0.4307241738 1.7606344696 -0.5776196659
O -0.4044696401 1.6451608226 0.3052944422
O 1.3439683146 2.6841511999 -0.6352901888
C 1.497642851 3.5941212728 0.4783311428
C 2.5965189451 3.1107473751 1.4085709393
S -1.0146813587 -0.238454858 -1.7263183309
P -1.6895738881 -0.3093319789 0.2738626373
S -0.6496851963 -0.804851553 1.8750686092
O -2.783138394 0.8491650163 0.393313035
C -3.8131586515 0.762022968 1.3881607947
O -2.7356748068 -1.5232884631 -0.0078017007
C -2.3463709961 -2.8944848356 -0.0164146872
H 1.7254668821 -3.9803519819 -0.0752559179
H 2.4696504616 -3.9606983178 1.5329460982
H 1.2330027745 -2.7707843296 1.1234665285
H 4.0261771694 -2.9591369449 -0.1299093615
H 3.4520282312 -1.701788468 1.0172892789
H 1.6146579108 -0.6037552169 -2.8108999232
H 2.4963962345 0.86775925 -2.3277411965
H 1.7545278116 4.5473197866 0.014810217
H 0.5424178858 3.6661693609 1.0045660184
H 2.3551704323 2.116405774 1.779149496
H 3.5445365471 3.0650056617 0.8807027266
H 2.6824244004 3.7924297905 2.2480855052
H -3.3834250572 0.4932604387 2.3551263661
H -4.551203411 0.0177737132 1.0911767957
H -4.2559373679 1.7540424529 1.4309918098
H -1.8559294444 -3.1363178567 -0.9593031641
H -3.2650073792 -3.4654030729 0.094022663
H -1.6716830891 -3.0949784396 0.8190920332
*
