! pbe def2-sv(p) def2/J RI DEFGRID1 loosescf d4 GCP(DFT/SV(P)) printgap
%output
    printlevel normal
end
* xyz 0 1
C 4.7980933667 1.0853603096 -1.319429968
C 4.8083311555 0.8979723391 0.183480824
O 3.8287105978 -0.0596856355 0.6242570394
P 2.2660797625 0.1817571053 0.48293192
S 1.6295278702 1.9994431231 0.8450212928
O 1.6671986022 -0.8443239835 1.5220660755
C 2.2106189836 -2.1436577046 1.8608175385
C 2.2076323827 -3.1036677349 0.6902521808
S 1.7873025369 -0.5259093282 -1.4727218068
C 0.0686427397 -0.0093044279 -1.4643920519
S -0.9619426215 -1.1586529728 -0.4700604521
P -2.5772723394 0.1759938995 -0.1624295716
S -4.1925633117 -0.5505290376 0.6710294228
O -2.7775859386 0.8624242295 -1.5830150352
C -3.7664427696 0.3811320369 -2.5135277552
C -3.3924722493 -0.9636585698 -3.1055011307
O -1.9122801574 1.429411657 0.5560829977
C -2.0118624576 1.6261827944 1.9765588834
C -1.335068306 0.5228022099 2.7644252189
H 3.876225555 1.5750137774 -1.6288684962
H 5.6393303373 1.7079060797 -1.6069854011
H 4.8704646227 0.1247343495 -1.822862255
H 4.6148600246 1.8478227974 0.6912816188
H 5.7533389821 0.4775655126 0.5306502575
H 3.2205308732 -1.9986018203 2.2485587071
H 1.5490537634 -2.4854043459 2.658393637
H 2.4928213815 -4.0892372056 1.04485999
H 1.2142357432 -3.1572238256 0.2489597814
H 2.916329094 -2.7823211327 -0.0698015826
H -0.2713111733 -0.027810424 -2.4961135202
H -0.0107721907 0.9916206685 -1.0350247272
H -4.7271008589 0.3137858157 -1.9933894141
H -3.811133587 1.1614570563 -3.2744394562
H -3.3494350467 -1.7163577584 -2.3185592892
H -4.1474891835 -1.2557410279 -3.8284688949
H -2.4262865537 -0.9135454129 -3.6009066993
H -1.5246638195 2.5890657206 2.139656292
H -3.0715962962 1.6898213461 2.2417643998
H -1.8246337069 -0.4308189648 2.5656436201
H -0.2858283804 0.4456034706 2.487216852
H -1.4069910099 0.7440956633 3.8243483161
*
