! pbe def2-sv(p) def2/J RI DEFGRID1 loosescf d4 GCP(DFT/SV(P)) printgap
%output
    printlevel normal
end
* xyz 0 1
C 3.752440996 -2.4932539527 1.0529724529
C 2.4016730181 -2.3177768706 0.3900736374
O 1.9187291391 -0.9679357383 0.5443387378
P 2.516112575 0.2425601882 -0.3156380542
S 3.2985909752 -0.2580301172 -2.033662834
O 3.5613779331 0.9910433388 0.6080845322
C 3.3046224215 1.3457954232 1.9897087973
C 2.8598753198 2.7896635081 2.1057826531
S 0.819180804 1.5056331914 -0.3882857022
C -0.0330246253 0.5894873378 -1.6977771918
S -0.90520914 -0.8645765818 -1.0833228898
P -2.4369545151 0.2169073768 -0.0512017031
S -3.0410864201 1.8094216883 -1.0196676175
O -1.9284298409 0.5734881755 1.3933322963
C -1.8937658856 -0.3168557432 2.5377345762
C -0.9943627391 -1.5138143224 2.3158858083
O -3.5410530944 -0.8879566354 0.2246141423
C -4.3684935779 -1.3948510222 -0.8438078114
C -5.5821263656 -2.0524951778 -0.2190884104
H 3.6957512338 -2.2405940745 2.1084889033
H 4.0737869209 -3.5244511985 0.9468881314
H 4.4836395746 -1.8443952438 0.5709398998
H 1.6315954972 -2.9341855968 0.855330569
H 2.4622025834 -2.5453617746 -0.6783661448
H 2.5543212724 0.6654056396 2.3987570758
H 4.2621760945 1.1876303383 2.4888938208
H 3.5908890752 3.4429603697 1.6375477641
H 1.8986337824 2.9366260489 1.6165882779
H 2.7673322524 3.0497632085 3.1556569855
H 0.6974939468 0.249169625 -2.4329886062
H -0.7554705003 1.2757113473 -2.1417340722
H -1.5208489585 0.3265332437 3.3362563189
H -2.9163120719 -0.6293447393 2.7559543076
H -0.9237471955 -2.0800235669 3.2394759443
H -1.4021090208 -2.153471201 1.5353519734
H -0.0012469732 -1.1880704025 2.016778376
H -4.6528675602 -0.5588188145 -1.4911543864
H -3.7764727509 -2.109489672 -1.4213528745
H -5.2725036606 -2.8597061041 0.4380902293
H -6.1468367273 -1.3242178764 0.3562661709
H -6.2131513537 -2.4522290144 -1.0059868022
*
