! pbe def2-sv(p) def2/J RI DEFGRID1 loosescf d4 GCP(DFT/SV(P)) printgap
%output
    printlevel normal
end
* xyz 0 1
C 0.5162305752 -2.1953302369 2.3997851887
C 1.5935982603 -1.1312219092 2.4644663585
O 1.3718717362 -0.1316023315 1.4416347233
P 2.2324975671 -0.047427887 0.1199366264
S 2.9614374503 -1.7226990333 -0.5980146646
O 3.3403701608 1.0061166936 0.5578832035
C 4.4680515627 1.3258877141 -0.2824687627
C 5.5585795058 1.9024342824 0.5977199522
S 0.9727531613 1.0799675717 -1.140963335
C 0.2040245978 -0.3181549936 -2.0097659268
S -0.7182787753 -1.4157186191 -0.9064466942
P -2.118728204 0.0234337759 -0.226337884
S -2.7119413817 1.3216811049 -1.5755644543
O -1.4239488616 0.6274804849 1.0584962504
C -1.5070472246 2.0202349284 1.4092084214
C -2.8357405268 2.3295559643 2.0662361187
O -3.2179290747 -0.881794745 0.4741630445
C -4.0578528182 -1.8099699581 -0.2407640477
C -5.3090596537 -1.1332102924 -0.7666733078
H -0.4666101423 -1.7300737657 2.4218068728
H 0.6084715879 -2.769888294 1.4802224818
H 0.6203081397 -2.8627702279 3.2491270317
H 2.5862175149 -1.570530413 2.3308363807
H 1.5576224396 -0.5807842088 3.4058373525
H 4.7993224874 0.4103443338 -0.7842820845
H 4.1369079072 2.0475185618 -1.033764694
H 6.4073972555 2.1748647867 -0.0207711136
H 5.1901258238 2.7842496307 1.1137401675
H 5.8723443714 1.1682603968 1.3344008977
H 0.9756784016 -0.9278658856 -2.4780925355
H -0.4691493151 0.1158733408 -2.7486187454
H -0.6651112179 2.1774003304 2.0851568684
H -1.3691371303 2.6233897665 0.5052093196
H -2.8541517434 3.3699807914 2.3746539118
H -3.6421162553 2.1542831611 1.3550004593
H -2.9855458783 1.6896647074 2.931458346
H -3.4821918161 -2.2625956104 -1.0534438051
H -4.3019274612 -2.5738226651 0.4999941048
H -5.9386869302 -1.8732513024 -1.2499977739
H -5.8577504211 -0.6737773463 0.0508297891
H -5.0491223336 -0.3628649471 -1.489216171
*
