! pbe def2-sv(p) def2/J RI DEFGRID1 loosescf d4 GCP(DFT/SV(P)) printgap
%output
    printlevel normal
end
* xyz 0 1
C 3.2831828852 1.9566710545 -1.9310932895
C 4.3291087952 1.1743673644 -1.1656601861
O 3.9013132384 0.8315355051 0.1753806219
P 2.6623708867 -0.0592295556 0.5572098639
S 2.8279327296 -0.6667657044 2.4104592648
O 2.7115681184 -1.1501365061 -0.6032081973
C 1.7196843102 -2.1437437493 -0.8971447609
C 1.5661923007 -3.1685058582 0.207748099
S 0.9364936889 1.1515647406 0.1927053434
C -0.0884526261 0.6501223587 1.5911851671
S -1.1190335104 -0.8136412999 1.2713339118
P -2.1364544239 -0.1330574193 -0.463831742
S -1.2832537129 -0.2714301306 -2.2180331001
O -2.5055035367 1.3539075831 -0.0095821412
C -2.5573349019 2.4481753711 -0.9416345338
C -3.8491982556 2.4229284943 -1.7326434551
O -3.4541192942 -1.010094271 -0.4786412593
C -4.2436999171 -1.4248426528 0.6599708381
C -4.8397794753 -0.253357101 1.4113960039
H 2.9746812817 2.8330067914 -1.3662540306
H 3.7024502424 2.2734301207 -2.8811213721
H 2.4072354688 1.3389702179 -2.1264598824
H 5.2269698464 1.7694068163 -0.9917653315
H 4.5882921637 0.2515530126 -1.6876464632
H 0.7682916672 -1.6448417833 -1.1095923225
H 2.085070092 -2.6056089042 -1.8165657547
H 2.5304944607 -3.609678756 0.4473633689
H 1.1622778891 -2.7087951235 1.1080973213
H 0.8852138536 -3.9461100543 -0.1233663757
H -0.7298922525 1.4922480175 1.8346336499
H 0.5571784282 0.3815302678 2.4310988756
H -2.4781063484 3.3402029586 -0.3188748593
H -1.6922939322 2.3842440458 -1.6092742149
H -4.7043792978 2.4799067525 -1.0645752601
H -3.8706632768 3.2646358586 -2.4173911762
H -3.9078382043 1.4977883913 -2.3055630009
H -5.0170342644 -2.0511896311 0.2121277283
H -3.6119398604 -2.0301908812 1.3145300767
H -5.4810535548 -0.6299347878 2.2023204278
H -4.0521449284 0.3530430225 1.8530348774
H -5.4280277242 0.3656081477 0.7388900412
*
