! pbe def2-sv(p) def2/J RI DEFGRID1 loosescf d4 GCP(DFT/SV(P)) printgap
%output
    printlevel normal
end
* xyz 0 1
C 2.5499834515 -0.4956398397 -2.9092876222
C 2.6689603028 0.7888028805 -2.113960651
O 3.0931052759 0.5210158598 -0.7638519744
P 2.1432513333 0.3898729046 0.4996350401
S 1.0101254408 1.920921513 0.9388542321
O 3.1974188818 0.1828737567 1.6524048723
C 4.1955827628 -0.8717456898 1.6484535556
C 3.8626842979 -1.907032645 2.7040848674
S 1.1720883005 -1.4925854937 0.2679257296
C -0.1615749264 -1.2407395285 1.4825307589
S -1.8023397116 -1.6432761566 0.8240070737
P -2.1410222281 0.0315145292 -0.3995512723
S -0.8918438887 0.4975440138 -1.8438617465
O -2.3480487807 1.1194837473 0.7307363184
C -2.5278479472 2.5172416911 0.416417966
C -2.3700973381 3.3040635105 1.6996847886
O -3.6276938845 -0.1839223738 -0.9231844033
C -3.9159767862 -0.859718207 -2.1599244371
C -3.5522978026 -2.3287562611 -2.0967372848
H 2.3271941683 -0.2478036979 -3.9418407667
H 3.4803824383 -1.0541711137 -2.8620217199
H 1.7424295606 -1.1105194519 -2.5188623157
H 1.7186125017 1.3297903645 -2.0985409802
H 3.4487594351 1.4364474844 -2.5190632938
H 4.2434345743 -1.3170466977 0.6529788428
H 5.1360382011 -0.3650727109 1.8695006103
H 2.9558641171 -2.4446786885 2.4388599591
H 4.6834584187 -2.6134249467 2.7768187344
H 3.7202315615 -1.422990157 3.6662637387
H -0.1444428435 -0.1974303325 1.8069118337
H -0.0096234864 -1.9212141486 2.316066606
H -1.7725317679 2.8081121979 -0.3216236562
H -3.5239829779 2.6404059204 -0.0158455521
H -1.3564010605 3.1901857381 2.0764975522
H -2.5596847445 4.3532386533 1.4992463111
H -3.0716702163 2.9419193288 2.4453025199
H -4.9879198229 -0.7113065341 -2.2957101835
H -3.3640224021 -0.3601353686 -2.9627989962
H -2.4721073183 -2.4380983349 -2.0029056208
H -4.0264006918 -2.7990739249 -1.2389577087
H -3.878542188 -2.8206060021 -3.0073846441
*
