! r2scan-3c def2/J RI DEFGRID2 scfconv6 printgap
%output
    printlevel normal
end
* xyz 0 1
C 5.5430415422 0.9047432528 -0.2066766212
C 4.2506589337 1.3961935531 -0.8295224698
O 3.3063726263 0.3164941491 -0.9885048919
P 2.2289938758 -0.050666264 0.1171254573
S 2.8881526842 -0.47094606 1.9182258673
O 1.4244284598 -1.2025168972 -0.6043543009
C 1.6745096739 -2.5981444365 -0.3523489214
C 3.0191884396 -3.02409399 -0.9004091314
S 0.8741984972 1.5640374034 -0.0003900982
C 0.0070946885 1.2211199685 1.5529236461
S -0.9127562888 -0.3478943237 1.5358412318
P -2.0773679621 -0.0808459731 -0.2224596586
S -1.3951656947 -0.5409373479 -1.9926604652
O -2.4946431537 1.4461866918 -0.0023895812
C -2.8172651384 2.3079226438 -1.1114276485
C -4.199755105 2.004507859 -1.6509888444
O -3.3461016637 -0.9777592508 0.0910649692
C -4.1787512919 -0.7887137572 1.2638732427
C -5.6058332446 -1.1289882912 0.8853923555
H 5.967419706 0.1054824645 -0.8079592391
H 6.248530025 1.7276239199 -0.1541989366
H 5.360377653 0.5298382308 0.7979811043
H 4.4125761118 1.7646106079 -1.844251451
H 3.7965443942 2.1857153419 -0.2235909821
H 1.6179613035 -2.7714080504 0.7279256637
H 0.8470449437 -3.1044384991 -0.8525959326
H 3.8126930908 -2.500313141 -0.3678389392
H 3.143759642 -4.093509303 -0.7629363254
H 3.0844852021 -2.7811960977 -1.9578202541
H -0.6775916742 2.0470357346 1.7237215003
H 0.7319833459 1.1272130472 2.3627471294
H -2.7501364513 3.3147618887 -0.6973546531
H -2.0594195451 2.17476034 -1.889656884
H -4.427317936 2.6869097448 -2.4636666888
H -4.2269306555 0.9826469459 -2.0290080696
H -4.9454740009 2.1157101904 -0.8680095042
H -3.8006302133 -1.4558907212 2.0415447943
H -4.0890392577 0.247096752 1.6000792336
H -5.6560597134 -2.1471453912 0.5103987464
H -6.2379888849 -1.0368890419 1.7627121283
H -5.9631599057 -0.4555173307 0.1111924277
*
