! pbe def2-sv(p) def2/J RI DEFGRID1 loosescf d4 GCP(DFT/SV(P)) printgap
%output
    printlevel normal
end
* xyz 0 1
C 3.8152212832 -2.8449899176 -0.588859656
C 4.2912372027 -1.4967365597 -0.0856181183
O 3.7207207243 -0.4308667895 -0.8935670973
P 2.620795411 0.5654411112 -0.3596822749
S 2.156783233 1.886942691 -1.724106227
O 3.2918252121 1.1204248221 0.9714723105
C 2.8609705793 2.3284913456 1.6229435605
C 1.4822892102 2.1900664288 2.2353991372
S 1.0530895977 -0.6853832341 0.3454547077
C 0.2105765197 -0.8454567629 -1.2657915627
S -1.4151606075 -1.583684838 -1.0773279239
P -2.4438634511 0.0619235461 -0.1696334631
S -1.5218104611 1.7866041809 -0.2979214347
O -2.7955219753 -0.4204335182 1.3037688925
C -1.8276189442 -0.4273372008 2.3711181708
C -2.5781505961 -0.6392725562 3.6700608015
O -3.860842277 0.1091624985 -0.8484393636
C -4.9580558351 -0.7990625294 -0.5717549439
C -4.6231335951 -2.2347015268 -0.9129201969
H 2.7482724526 -2.9643793114 -0.4168031165
H 4.0161154912 -2.9362947895 -1.6528297921
H 4.3469024665 -3.6275693203 -0.0570090049
H 5.3700537297 -1.3865963781 -0.20317614
H 4.0169527238 -1.3397724265 0.9593111684
H 3.6249081381 2.4957850258 2.3838350465
H 2.8772890495 3.1423001277 0.8915217081
H 1.2706926011 3.0649033235 2.841724065
H 0.7281113423 2.1239963228 1.4511126824
H 1.4326651096 1.298194701 2.8555530085
H 0.7820725352 -1.504838811 -1.9155806732
H 0.1185721206 0.1538276395 -1.6993354413
H -1.1102649498 -1.2320194812 2.1844139032
H -1.2954661715 0.5290092344 2.3639509081
H -3.1160171767 -1.5821141898 3.6399580845
H -1.8683094197 -0.6569594808 4.4901690591
H -3.2875978742 0.1681239866 3.8276946304
H -5.224893118 -0.697041696 0.481245177
H -5.7614401718 -0.4115734846 -1.1999994057
H -4.2997242626 -2.3150631869 -1.9475098292
H -3.8249811017 -2.6009624944 -0.2698148161
H -5.5062196744 -2.8485945045 -0.7651747595
*
