! r2scan-3c def2/J RI DEFGRID2 scfconv6 printgap
%output
    printlevel normal
end
%cpcm
    smd true
    smdsolvent "water"
end
* xyz 0 1
C 2.9782744945 -1.8589504067 0.3019327527
C 1.6877493459 -1.1566268456 0.1091449304
C 1.5150426148 0.182969539 0.0039211739
C 0.2088005335 0.781026069 -0.194672877
O 0.0721714581 1.9550088494 -0.5086707578
N -0.8731315969 -0.080931801 0.0013517315
C -0.7111476 -1.442391492 -0.1754824211
O -1.6016126699 -2.2222717843 -0.4598346098
N 0.5652698299 -1.9203894182 -0.0121830915
C -2.2490899435 0.4892540116 0.166954436
C -3.1469315532 -0.4877903595 0.9339292956
C -2.180273291 1.7633823001 1.017494009
C -2.8227614151 0.7813036862 -1.2182652055
Cl 2.8369888407 1.3011780974 0.0248560406
H 2.9189877173 -2.5072828555 1.1728001981
H 3.7765216528 -1.1380397176 0.439060925
H 3.1992331116 -2.4753729148 -0.5667356888
H 0.6574276079 -2.9292370288 -0.0813618326
H -2.6642511667 -0.8017161179 1.8564357463
H -4.0727684031 0.0212452956 1.1830294855
H -3.3867529469 -1.3682483737 0.3488202604
H -1.6840875669 2.5760379232 0.4981277451
H -1.6487557043 1.5682550513 1.9464200812
H -3.1917323571 2.0779101146 1.2544144578
H -3.8186612131 1.2022110049 -1.123518018
H -2.1877556586 1.4929503373 -1.7413556941
H -2.8805688374 -0.1380068255 -1.796786007
*
