! pbe def2-sv(p) def2/J RI DEFGRID1 loosescf d4 GCP(DFT/SV(P)) printgap
%output
    printlevel normal
end
* xyz 0 1
C 5.5498268959 -0.4460789125 -0.6994626018
C 4.3365595816 -1.3281378486 -0.9098652736
O 3.2545070132 -0.584483326 -1.5246358367
P 2.0968233959 0.1137325785 -0.7157876638
S 0.8779764259 1.0062387092 -1.956943927
O 2.88603035 1.0268596663 0.3096932179
C 2.2497016202 1.9644645794 1.1996231212
C 3.3253657481 2.8805965724 1.7447805654
S 1.2718241878 -1.4248112695 0.5087155996
C -0.0139574895 -2.0110056526 -0.6425801647
S -1.6346941738 -2.1907018503 0.1440258416
P -2.2278681414 -0.1714252764 0.2657089247
S -1.0925390114 1.1411791631 1.1880477641
O -3.6923401421 -0.281973225 0.870485062
C -3.9488249779 -0.2220561189 2.2841355082
C -3.3986386298 -1.4319289686 3.0112862726
O -2.5063412254 0.085919072 -1.2708186278
C -2.6672811349 1.4028935822 -1.8328635222
C -3.8845169479 2.1121970216 -1.2800832956
H 5.8535584685 -0.000282276 -1.6427055536
H 5.3219592701 0.3482981649 0.0058133865
H 6.363116902 -1.0501355254 -0.3095121832
H 3.9821347546 -1.7502070958 0.0349527839
H 4.5464995012 -2.1304375945 -1.6193975814
H 1.488303592 2.5199331143 0.6432805262
H 1.7521953993 1.4060917733 1.9968552844
H 4.0681035116 2.3015048957 2.2857160821
H 3.8109640792 3.4116972569 0.9307826039
H 2.8681994976 3.5973478202 2.4186887952
H 0.2584159166 -3.0050628353 -0.9867436823
H -0.0850102637 -1.3032064549 -1.4725703539
H -3.5037185168 0.6976169937 2.6779036699
H -5.036143623 -0.1688139494 2.3510342049
H -3.7611059867 -2.3471022687 2.5498207241
H -2.3097486932 -1.4270593628 2.9683795777
H -3.7103831451 -1.4009877681 4.0503259396
H -1.7541934979 1.9755487812 -1.6405033645
H -2.7529718635 1.2158598859 -2.9041324656
H -4.7677445027 1.4903426564 -1.4012752594
H -3.7419780759 2.3221744406 -0.2205645453
H -4.0230458905 3.0494587397 -1.80977988
*
