! pbe def2-sv(p) def2/J RI DEFGRID1 loosescf d4 GCP(DFT/SV(P)) printgap
%output
    printlevel normal
end
* xyz 0 1
C 3.2665080136 -2.9980843171 -0.7069805997
C 3.654355995 -1.8838834191 -1.6538697657
O 3.8209145224 -0.6109287439 -0.9840543695
P 2.7852984165 0.0995440671 -0.033083563
S 3.1830542611 2.0065860467 0.1560679395
O 2.9254316672 -0.743278421 1.3091722434
C 2.5328250437 -0.2404016777 2.5957304361
C 1.0266604277 -0.1710969355 2.7464979403
S 0.8729639801 -0.3934733882 -0.8677130397
C 0.1877864419 1.2644878418 -1.0925259824
S -0.9875063251 1.7302396937 0.2020570428
P -2.5342128134 0.3816312032 -0.3681279881
S -2.7515573747 0.1812277508 -2.3021572779
O -3.8222399311 0.9780187977 0.3225051971
C -4.1979231391 0.7994819704 1.7112280293
C -3.1274402929 1.2651963241 2.674005972
O -2.2194545125 -0.9560638368 0.4417277978
C -1.9812472938 -2.2331243492 -0.1769848834
C -3.2833464762 -2.9910006933 -0.3419703902
H 2.2809170561 -2.8027229256 -0.2881788467
H 3.2387071548 -3.9352760231 -1.2541495979
H 3.9869750944 -3.0727835402 0.1030545631
H 2.9019056817 -1.7593955268 -2.4369866286
H 4.6326060088 -2.0563890398 -2.1049794957
H 2.9748666128 -0.9488941152 3.2979785201
H 2.9793006961 0.7492810499 2.7360632471
H 0.6211078217 0.6009968586 2.0942229576
H 0.5762365636 -1.1271520901 2.4911594527
H 0.7803857046 0.07983157 3.7733099277
H -0.3255815772 1.274727234 -2.0540652492
H 0.9989913915 1.9945137211 -1.0590184579
H -5.1076913039 1.3953491527 1.7981634999
H -4.4282775 -0.2563077774 1.8671322264
H -3.5121094369 1.2070051766 3.6874947065
H -2.2468700762 0.6316516454 2.5911162058
H -2.8413782365 2.2919982881 2.4578726224
H -1.4958746835 -2.0819186519 -1.1453261491
H -1.2970718789 -2.7465001161 0.4997385746
H -3.7730873359 -3.1188920703 0.6194775925
H -3.9465835939 -2.4414967062 -1.0081959791
H -3.0790671347 -3.9653667451 -0.7736821469
*
