! pbe def2-sv(p) def2/J RI DEFGRID1 loosescf d4 GCP(DFT/SV(P)) printgap
%output
    printlevel normal
end
* xyz 0 1
C 5.3996547006 -0.300801643 -0.7493246741
C 4.3888057163 -0.9395372034 0.1833948891
O 3.3888776324 0.0147166707 0.591227286
P 1.9875553938 0.1514087557 -0.1524079883
S 2.0642179088 0.4071814904 -2.0987034224
O 1.3242503949 1.2963250227 0.7131553687
C 1.41467406 2.6855602143 0.3447397915
C 2.8342927953 3.1999500539 0.442093274
S 1.0063642985 -1.5834395766 0.5139219878
C -0.1474562152 -1.8924434322 -0.8696422924
S -1.8653210615 -1.9543984508 -0.3361379737
P -2.0771165978 0.1078711558 0.1477759247
S -1.3599454819 1.3154161504 -1.2216289446
O -1.3699385842 0.4180720181 1.5218300295
C -1.8356655531 0.0432443162 2.842742305
C -1.8761054846 -1.4561713782 3.0528692471
O -3.6095507732 0.2401995083 0.5349612708
C -4.7057483894 -0.2989917982 -0.2284819057
C -4.7301309402 0.2067425651 -1.6551640514
H 5.857708 0.5605709095 -0.2713179617
H 6.1678456504 -1.0268592282 -0.994594687
H 4.9121666544 0.0226793858 -1.6665469353
H 4.8556429562 -1.2634307208 1.1154063917
H 3.9002543574 -1.7932944928 -0.2953178534
H 1.0220565066 2.8013110438 -0.6715085954
H 0.74481529 3.1841747379 1.0470104538
H 3.2359892864 3.0056563278 1.4331526861
H 3.4571396451 2.6972346389 -0.2971328578
H 2.8435904089 4.2674628843 0.2456919877
H 0.0773429427 -2.8715553743 -1.2845000367
H -0.0126548405 -1.1053421075 -1.6176120851
H -1.1055704263 0.5177081634 3.5006628218
H -2.8201307314 0.48996458 2.9928491765
H -0.9156743485 -1.9007539575 2.8003138822
H -2.0960434362 -1.6559040669 4.0970863513
H -2.6483365831 -1.9109494443 2.4365258595
H -4.6327647687 -1.3896368452 -0.2068446266
H -5.5872608397 0.0276639371 0.3260074346
H -5.6155411146 -0.1701319854 -2.1566153561
H -4.7399498799 1.2940313996 -1.6734849963
H -3.84592217 -0.1358337255 -2.1908199506
*
