! pbe def2-sv(p) def2/J RI DEFGRID1 loosescf d4 GCP(DFT/SV(P)) printgap
%output
    printlevel normal
end
* xyz 0 1
C 4.4528572164 1.0612642829 -1.625864187
C 3.2069717471 0.3732730011 -2.1407709501
O 2.710374386 -0.595055619 -1.1911650302
P 2.0412801884 -0.1695421353 0.1718763747
S 1.1884082055 1.6042019846 0.2113568536
O 3.2384244104 -0.2843030407 1.2081505588
C 3.1069581269 0.1162526867 2.5862452279
C 4.500441015 0.2929488406 3.1540757185
S 0.9513083666 -1.9291560188 0.60776533
C 0.0388155944 -2.1559493619 -0.9592014103
S -0.5473849891 -0.6258387792 -1.7284421192
P -2.0687862675 -0.0875104114 -0.3541005676
S -1.75287608 -0.0160750626 1.5832263019
O -3.1158595046 -1.1885146033 -0.8001046227
C -4.247348248 -1.5544925665 0.0156524357
C -5.2921909742 -0.4593779126 0.0439217968
O -2.6331388255 1.2340477103 -1.0238365448
C -2.2698077788 2.5774945009 -0.6459096413
C -3.2890788801 3.1521172414 0.3184385368
H 4.206663146 1.6525943957 -0.7445493868
H 5.2042081739 0.3242386198 -1.355584719
H 4.8467894948 1.7189350334 -2.3941927829
H 3.4049125908 -0.2176228929 -3.0355395027
H 2.4134367241 1.1001319629 -2.3417964935
H 2.5324429869 1.0484954903 2.6271506918
H 2.5525541833 -0.662847026 3.1173511706
H 5.0571586715 -0.6345691808 3.0582712244
H 5.0265549675 1.0780492154 2.6185679226
H 4.4245665377 0.5622520572 4.2023573866
H -0.8045693969 -2.8038067483 -0.72873387
H 0.7044524809 -2.6187078707 -1.6841353633
H -4.6248774178 -2.4641628932 -0.4532612063
H -3.8892894649 -1.772915843 1.0270767227
H -6.170332298 -0.8119590782 0.5757317942
H -4.8941106113 0.4149237312 0.5562349794
H -5.5682190167 -0.1786432037 -0.969052185
H -1.2702123797 2.5811658608 -0.2033414074
H -2.2504813176 3.1318512024 -1.5857799307
H -3.2781283682 2.5911740246 1.250930534
H -3.0332089689 4.1855097918 0.5286322983
H -4.284091781 3.1069671766 -0.1158729754
*
