! pbe def2-sv(p) def2/J RI DEFGRID1 loosescf d4 GCP(DFT/SV(P)) printgap
%output
    printlevel normal
end
* xyz 0 1
C 2.8833705269 -1.4915527069 -2.9186462044
C 3.2269919965 -0.3938565227 -1.9317409957
O 2.8676697325 -0.826312762 -0.6046617659
P 2.1155161064 0.0397833268 0.4851999953
S 1.489203689 1.7975125846 -0.1598207812
O 3.2553952521 0.1462183538 1.5882371856
C 3.039273929 0.2891058214 3.0039670485
C 2.0643381004 1.3984937109 3.3410365028
S 0.8212679752 -1.3859808929 1.3594758928
C -0.0634996396 -2.0263276071 -0.1015562298
S -0.3356181629 -0.8266534365 -1.4349552118
P -1.8884368077 0.3155208711 -0.5959368781
S -2.5369141722 1.8461344687 -1.6306035396
O -1.2607352659 0.6236977547 0.8247676476
C -1.9373720323 1.4657506996 1.7827045654
C -2.6001998398 0.617828805 2.8485620338
O -3.0294592265 -0.7353338229 -0.2078621908
C -4.1042606626 -1.0522723541 -1.1066917639
C -3.6243926533 -1.8421287323 -2.3076239554
H 3.3686746512 -2.4173675649 -2.6238973835
H 1.8071226906 -1.6445750848 -2.9540496869
H 3.2326382101 -1.2001380459 -3.9036899526
H 2.6948778933 0.5364158811 -2.1605970536
H 4.3009248846 -0.195792968 -1.9151359353
H 2.6818073277 -0.6700364575 3.3898481566
H 4.0354106944 0.4990387315 3.3975107912
H 1.9794230763 1.4934622794 4.4187078274
H 2.4024825353 2.3423843413 2.9187648947
H 1.0841060728 1.1664659831 2.9244635932
H -1.0198164955 -2.3963365265 0.2625768946
H 0.5293119872 -2.8235761671 -0.5443878119
H -1.1546990582 2.1043964985 2.199504885
H -2.660849038 2.0939485397 1.2522119823
H -1.86308482 -0.0292178215 3.3171453573
H -3.0377961592 1.2696934828 3.5978632919
H -3.3798069529 0.0020914776 2.4074979332
H -4.8007191337 -1.6275561842 -0.4952605798
H -4.5715640642 -0.1159512432 -1.4274563857
H -4.477241177 -2.1141177153 -2.9210894284
H -2.9443290811 -1.231981211 -2.9019969627
H -3.1055606083 -2.7436722095 -1.9926445054
*
