! pbe def2-sv(p) def2/J RI DEFGRID1 loosescf d4 GCP(DFT/SV(P)) printgap
%output
    printlevel normal
end
* xyz 0 1
C 3.7287151286 1.7121041805 -0.8302171285
C 2.2858426675 1.8022182038 -0.3788190811
O 1.655806897 0.512282068 -0.3836860347
P 2.0109186625 -0.6205654883 0.6858846897
S 2.6984178087 0.05435437 2.3852049947
O 3.0271415855 -1.6339105685 0.0169666422
C 2.7116637678 -2.5936952227 -1.0188705675
C 2.36103924 -1.9356850102 -2.3368007072
S 0.1939684971 -1.6905763096 0.7442018446
C -0.6193589009 -0.6377954378 1.9704516289
S -0.9530340408 1.0485110433 1.3853411202
P -2.0057369569 0.5965011624 -0.4040992131
S -1.0609787879 0.2322360164 -2.0852388314
O -3.0227737477 1.8166327728 -0.5317706125
C -2.6931803366 3.0184457141 -1.2443419915
C -1.6623060741 3.8425301795 -0.4994684541
O -2.9539978449 -0.5456038421 0.1354074716
C -3.4721906507 -1.6189040577 -0.6841070733
C -3.2481431745 -2.9366315074 0.0298350203
H 3.7842421089 1.296118649 -1.8327364862
H 4.1719622163 2.7027836989 -0.8247970071
H 4.284452907 1.0686923526 -0.1476683873
H 1.6823803669 2.3942936943 -1.0695110209
H 2.217941612 2.2208797906 0.630988468
H 3.6245705872 -3.186753124 -1.095669602
H 1.8900611922 -3.2234542758 -0.6664010535
H 1.450667421 -1.345472299 -2.2452243054
H 3.1691570551 -1.2853657048 -2.6611335997
H 2.2021555301 -2.7059543082 -3.0849723523
H 0.03101819 -0.525994267 2.8391795165
H -1.5549881634 -1.1249769513 2.2329268283
H -2.3244602985 2.7419006941 -2.2382186353
H -3.6439820946 3.5450926705 -1.33477418
H -1.4766863639 4.7668214506 -1.0369063006
H -2.0122914355 4.0693660085 0.5042558743
H -0.7299695613 3.2822990007 -0.4208697224
H -4.535039199 -1.4153518403 -0.8274422947
H -2.9630985776 -1.6014668419 -1.6537236859
H -3.7396790804 -2.9264214763 0.9985187176
H -3.6616645273 -3.7389677495 -0.5722242661
H -2.1832991628 -3.1097190386 0.1734540792
*
