! pbe def2-sv(p) def2/J RI DEFGRID1 loosescf d4 GCP(DFT/SV(P)) printgap
%output
    printlevel normal
end
* xyz 0 1
C 3.4706433568 2.5142741578 -0.3294029948
C 2.4285531962 1.7938327667 -1.1588962634
O 2.540901787 0.3637037841 -1.0325267615
P 2.2277092997 -0.4082099461 0.3125928188
S 0.9223911599 0.4292461845 1.5210318763
O 3.6826009083 -0.5753344888 0.9231539066
C 3.9195722015 -0.9774271029 2.2841629629
C 3.4929388826 -2.4080682252 2.542163178
S 1.7527328629 -2.3083351571 -0.4642236377
C -0.0313089284 -2.0648928786 -0.6448260813
S -0.4429055466 -0.6189154974 -1.684029281
P -2.0342688208 0.2050930245 -0.563685632
S -2.5823734612 -0.7401455312 1.0661625746
O -3.0446161083 0.2162801814 -1.7910563951
C -4.296362352 0.9320974577 -1.7952991061
C -5.3895491124 0.1609057459 -1.0815755128
O -1.7046390594 1.7527408551 -0.3790244931
C -1.6812734541 2.4432655846 0.882968998
C -3.007450521 3.1319691269 1.1337433103
H 3.4104032904 3.581446395 -0.5185466929
H 3.2912228128 2.3298105997 0.7294867979
H 4.4638355732 2.1546614684 -0.5847981906
H 2.5602430454 1.9714058612 -2.2269445762
H 1.4166580812 2.0893196581 -0.8600574412
H 4.9954541493 -0.8486136031 2.4093997754
H 3.3816907383 -0.2907774481 2.9458469299
H 2.4087474773 -2.4925224129 2.4780435169
H 3.938161261 -3.0735021293 1.8068665219
H 3.809559085 -2.703440711 3.5373885
H -0.493050214 -1.9247943071 0.3371538677
H -0.4079699084 -2.9636818963 -1.1264160049
H -4.144638047 1.9154458802 -1.3426309386
H -4.5238391893 1.0493433233 -2.8565562056
H -6.3250421323 0.705053339 -1.1648264313
H -5.5043924488 -0.8232170608 -1.527757758
H -5.1436857698 0.0337196929 -0.029172507
H -1.456600718 1.7306045707 1.6820103567
H -0.8617606264 3.1588776558 0.8014777787
H -3.7982349845 2.3903576056 1.2328302055
H -2.9411522926 3.6990114919 2.0565883386
H -3.2445829557 3.8060131394 0.3147603194
*
