! pbe def2-sv(p) def2/J RI DEFGRID1 loosescf d4 GCP(DFT/SV(P)) printgap
%output
    printlevel normal
end
* xyz 0 1
C 4.2972975201 -0.075339887 -2.6988331739
C 4.6123468236 0.7055517403 -1.4392091361
O 4.0349619239 0.1009442866 -0.2692911231
P 2.4657234282 0.0356523453 -0.0148963196
S 1.503046466 1.6726903186 -0.5236188617
O 2.4245520294 -0.3647095827 1.5116962002
C 2.3240732039 0.5837312674 2.5971309917
C 1.555776719 -0.0779308265 3.7229949505
S 1.8564031251 -1.7939773946 -0.8659601719
C 0.0935028836 -1.4233610754 -0.9846616574
S -0.6415534566 -1.0699874609 0.651146446
P -2.378263025 -0.1329262869 -0.0889140619
S -2.2188676347 1.0136553715 -1.6771811845
O -3.043505495 0.5468400815 1.1829526778
C -2.8130115477 1.9213960266 1.5373699808
C -1.4119210352 2.141788976 2.0682227444
O -3.2587822087 -1.4348783543 -0.2906566795
C -4.4514704097 -1.4425225667 -1.1026113683
C -5.5713981614 -0.6448699033 -0.468357438
H 3.2323465269 -0.0123118636 -2.9198073247
H 4.8538250957 0.3440158411 -3.530881902
H 4.5662845254 -1.1209184453 -2.5717742856
H 4.2383790582 1.7315803691 -1.5178250183
H 5.6822982342 0.7153313945 -1.227217045
H 3.3391127555 0.8465662966 2.9034484697
H 1.8133274645 1.4818404252 2.2332433067
H 0.5716257888 -0.378956951 3.3725774569
H 2.086257284 -0.9621799035 4.0631423819
H 1.4528418957 0.6221081681 4.5456339726
H -0.3770129375 -2.3050821506 -1.4137228875
H -0.05566169 -0.5451948882 -1.61877459
H -2.9897704871 2.5437991313 0.653910629
H -3.5686079588 2.1269956958 2.2968711489
H -1.2044683611 1.4534551716 2.8834441691
H -0.6836801798 1.9815024026 1.2730146331
H -1.3163191768 3.1629085642 2.4232000479
H -4.2000624748 -1.0390707804 -2.0888333746
H -4.7032736749 -2.5006340562 -1.184466185
H -5.7410912786 -0.9819229111 0.5508233243
H -5.3099019556 0.4122337452 -0.4510404595
H -6.4792810904 -0.774122319 -1.0492736838
*
