  19
        -21.04163613
 C         -3.1258784765       -0.8100371417       -0.2086112918
 C         -2.1413122501        0.1886217406        0.3881389121
 C         -0.7693462101        0.0985369377       -0.2757195011
 C          0.2210743583        1.0979013573        0.3162741444
 C          1.6058120769        0.9860969013       -0.3325812064
 C          2.2255769995       -0.2940031831       -0.0559837357
 C          2.7250730624       -1.3537232673        0.1899249489
 H         -4.0942552211       -0.7316422475        0.2794710968
 H         -2.7582743661       -1.8261288021       -0.0837595389
 H         -3.2601670294       -0.6236124691       -1.2718141773
 H         -2.5344089641        1.2011103434        0.2691128066
 H         -2.0359406271       -0.0015353422        1.4587411815
 H         -0.8757434907        0.2848373652       -1.3475095413
 H         -0.3720924325       -0.9121609414       -0.1536269214
 H          0.3124226116        0.9238633519        1.3909726494
 H         -0.1551387841        2.1129341308        0.1704834870
 H          2.2569034234        1.7767599342        0.0496151696
 H          1.5168027902        1.1080592974       -1.4155229168
 H          3.1695064162       -2.2804055100        0.3983122379
  19
        -21.04159362
 C         -3.6287126095        0.3035721397       -0.1368205290
 C         -2.3162166548       -0.3081339287        0.3390902523
 C         -1.1075458127        0.3819572875       -0.2891831716
 C          0.2090937954       -0.2275647117        0.1849634564
 C          1.4140785660        0.4739826128       -0.4514900790
 C          2.6618692112       -0.1051185977        0.0015656612
 C          3.6792768366       -0.6008180861        0.3915186756
 H         -3.6746073785        1.3582232403        0.1254816442
 H         -4.4747593981       -0.2018211965        0.3222614106
 H         -3.7204142593        0.2154306405       -1.2170848295
 H         -2.2515543572       -0.2283668473        1.4267316582
 H         -2.2971641655       -1.3703968183        0.0846332148
 H         -1.1283649169        1.4443418219       -0.0337258654
 H         -1.1738517425        0.3013119819       -1.3770453123
 H          0.2350803467       -1.2895595565       -0.0704358339
 H          0.2798402421       -0.1481179213        1.2723556584
 H          1.4030080105        1.5360850918       -0.1916322331
 H          1.3593529290        0.3882108747       -1.5402298891
 H          4.5771282479       -1.0266898908        0.7262553370
  19
        -21.04081609
 C         -2.8977695466       -0.8664924822       -0.1713842051
 C         -1.7536548250        0.0942035362       -0.4733759764
 C         -0.8164109161        0.2418324161        0.7240601918
 C          0.2831507932        1.2829282606        0.5137200528
 C          1.3149961072        0.8732917135       -0.5450469317
 C          1.9979465976       -0.3524891411       -0.1852614383
 C          2.5520537688       -1.3658912819        0.1294482689
 H         -3.5526841939       -0.9657212081       -1.0337127144
 H         -3.4874530063       -0.5064544083        0.6689590889
 H         -2.5090326122       -1.8507015332        0.0807054314
 H         -1.1979024247       -0.2801172894       -1.3348277820
 H         -2.1623435095        1.0732360031       -0.7354983806
 H         -0.3551737975       -0.7239438543        0.9441028515
 H         -1.4076866442        0.5336502273        1.5956792162
 H          0.8014462865        1.4417240744        1.4623145944
 H         -0.1675740693        2.2314294985        0.2132249676
 H          2.0589969988        1.6675600500       -0.6508293612
 H          0.8280543836        0.7356495934       -1.5131038347
 H          3.0441721334       -2.2526078778        0.3964145322
  19
        -21.04075574
 C         -3.4664274653       -0.0320874129        0.2070749651
 C         -2.0068827111       -0.4062582337       -0.0248620885
 C         -1.1378281390        0.8323513138       -0.2373332943
 C          0.3110475882        0.5068973601       -0.5996899055
 C          1.0771527265       -0.1553476617        0.5515404259
 C          2.4718799974       -0.3436639651        0.2090670778
 C          3.6202729711       -0.4890594442       -0.0958879998
 H         -3.8633435530        0.5075577606       -0.6500497695
 H         -3.5614300077        0.6036778374        1.0846441365
 H         -4.0700479200       -0.9231843355        0.3614541420
 H         -1.6460095382       -0.9710897336        0.8363136643
 H         -1.9335239922       -1.0519323808       -0.9032123566
 H         -1.1568580395        1.4463695281        0.6664547074
 H         -1.5701618851        1.4260735178       -1.0465940010
 H          0.8250245588        1.4316759622       -0.8730846042
 H          0.3318565464       -0.1518315204       -1.4710330287
 H          0.6424362333       -1.1299320657        0.7846157596
 H          1.0153249418        0.4728745552        1.4445027142
 H          4.6284223278       -0.6214900287       -0.3520976528
  19
        -21.04075323
 C         -3.1032941221        0.4306161756       -0.0014854713
 C         -2.0794975085       -0.6686830229        0.2614690712
 C         -0.7221710441       -0.3963249264       -0.3875797400
 C          0.0094453430        0.7981195510        0.2208902194
 C          1.4198469973        0.9544782050       -0.3607748694
 C          2.2736072643       -0.1620739380       -0.0091751107
 C          2.9661767963       -1.0886717740        0.2987768426
 H         -3.2179828983        0.5944520181       -1.0707652132
 H         -2.8000262083        1.3658851923        0.4613173832
 H         -4.0707100813        0.1492959314        0.4077659877
 H         -1.9447266018       -0.7898877055        1.3387661220
 H         -2.4672758211       -1.6120657399       -0.1299776828
 H         -0.8634713047       -0.2280403252       -1.4582690373
 H         -0.0923529129       -1.2822954971       -0.2719623689
 H          0.0796525445        0.6660542841        1.3031900678
 H         -0.5475360739        1.7154703550        0.0252037232
 H          1.8757540314        1.8724537231        0.0196476374
 H          1.3630936141        1.0255141369       -1.4504222068
 H          3.5797478333       -1.8973793892        0.5618934910
  19
        -21.04073978
 C         -2.6512864075       -0.7786859676       -0.5637719535
 C         -2.2397234468        0.2216731510        0.5108190831
 C         -0.7269857385        0.2888252515        0.7236818459
 C          0.0230232888        0.8940477279       -0.4606557028
 C          1.5283045848        0.9950548780       -0.1863327950
 C          2.1349453947       -0.3132531329       -0.0461782202
 C          2.6188069285       -1.4033087232        0.0567764634
 H         -3.7350649298       -0.8525420993       -0.6143891920
 H         -2.2494151077       -1.7638528182       -0.3373501685
 H         -2.2873317564       -0.4754179137       -1.5417425412
 H         -2.6112965599        1.2140595062        0.2447445724
 H         -2.7095719180       -0.0644151310        1.4547057340
 H         -0.3420079897       -0.7158929018        0.9143293619
 H         -0.5257048292        0.8930763484        1.6123966383
 H         -0.3659007362        1.8945509684       -0.6631899345
 H         -0.1322867616        0.2819094023       -1.3503433633
 H          1.7003958548        1.5639234230        0.7316073300
 H          2.0190523331        1.5183841583       -1.0113256518
 H          3.0512435436       -2.3539735403        0.1513475935
  19
        -21.04070805
 C         -2.9613363959       -0.7803568237       -0.2154612583
 C         -2.4364534248        0.5106857690        0.4031246962
 C         -1.0990401772        0.9613639891       -0.1859655140
 C          0.0575821381        0.0278608306        0.1639889435
 C          1.3906750342        0.5769270937       -0.3566587326
 C          2.4887743059       -0.3095779648       -0.0311618622
 C          3.3780963372       -1.0592404156        0.2517965007
 H         -3.9473961949       -1.0128710668        0.1797057319
 H         -2.3029298639       -1.6160305336        0.0063266668
 H         -3.0400180289       -0.6795541021       -1.2957495910
 H         -3.1712412269        1.3026441526        0.2400712466
 H         -2.3280851831        0.3780430898        1.4820361153
 H         -0.8709634461        1.9608327824        0.1935869023
 H         -1.1916592545        1.0330589217       -1.2724529384
 H         -0.1106137980       -0.9587000182       -0.2708105469
 H          0.1170771507       -0.0908653186        1.2485625790
 H          1.5859461234        1.5580322166        0.0852385363
 H          1.3423162706        0.6953326336       -1.4426647894
 H          4.1660295144       -1.7078868672        0.4926630650
  19
        -21.04006555
 C         -2.7365364564       -0.9285038462        0.2531481214
 C         -1.3140325122       -0.5493096001       -0.1425529116
 C         -1.0958082237        0.9599553081       -0.0708691497
 C          0.2904443765        1.4052793593       -0.5362829221
 C          1.4303286183        0.9526758407        0.3884356785
 C          1.8383219953       -0.4183054366        0.1589145131
 C          2.2068958351       -1.5383438536       -0.0490558466
 H         -3.4572864147       -0.4552583935       -0.4104007240
 H         -2.9470028096       -0.6075605567        1.2710411773
 H         -2.8737156873       -2.0055557692        0.1977085558
 H         -0.6071770371       -1.0545573481        0.5172003199
 H         -1.1148394026       -0.8929770601       -1.1603292938
 H         -1.2575021661        1.2975424514        0.9562055715
 H         -1.8440997635        1.4514539622       -0.6985067233
 H          0.3015570240        2.4968335948       -0.5774121408
 H          0.4746879049        1.0308628393       -1.5457460221
 H          1.1253477318        1.0647658465        1.4323406617
 H          2.3035811088        1.5895191219        0.2205762027
 H          2.5126025570       -2.5261324699       -0.2233829217
  19
        -21.03984141
 C         -2.6429419047       -0.8689527920        0.0250830468
 C         -2.1233574819        0.4370387216       -0.5659292435
 C         -1.1575192084        1.1784500809        0.3610643986
 C          0.1280217993        0.4205502517        0.6947681079
 C          0.9972925382        0.1511216596       -0.5388028276
 C          2.2604975714       -0.4499525090       -0.1634766610
 C          3.2958783897       -0.9478903819        0.1726584494
 H         -3.0866199868       -0.6934372927        1.0027963664
 H         -1.8429823222       -1.5964427607        0.1358751326
 H         -3.4022228894       -1.2993911683       -0.6237760046
 H         -1.6408371232        0.2366191503       -1.5240063074
 H         -2.9723144896        1.0960293664       -0.7638540320
 H         -1.6756694804        1.4014572731        1.2970641007
 H         -0.8931007982        2.1321489214       -0.1031593892
 H         -0.1094564213       -0.5258559260        1.1829488890
 H          0.7065962884        1.0161698610        1.4054518687
 H          1.1948031068        1.0902699093       -1.0632887402
 H          0.4829008503       -0.5252216699       -1.2253070342
 H          4.2074546771       -1.3833471399        0.4536551257
  19
        -21.03978235
 C         -2.7611846116        0.2563698851        0.5498895477
 C         -1.6904833720       -0.7164001313        0.0673532108
 C         -0.7460965002       -0.1130167087       -0.9745175749
 C          0.0734646645        1.0834494142       -0.4888325028
 C          1.0387640392        0.7411340435        0.6528965782
 C          1.9947659532       -0.2757029892        0.2651548362
 C          2.7779240143       -1.1154471974       -0.0734312279
 H         -2.3232422632        1.0790630440        1.1089575561
 H         -3.4668777685       -0.2547256902        1.2006957987
 H         -3.3094231759        0.6668258668       -0.2954161192
 H         -1.1160450861       -1.0829954375        0.9198444957
 H         -2.1796273021       -1.5823419468       -0.3853495728
 H         -1.3360483202        0.2032837790       -1.8384999532
 H         -0.0563358684       -0.8915105070       -1.3101512024
 H         -0.5930353030        1.8806060675       -0.1568845136
 H          0.6526721618        1.4653324565       -1.3331521033
 H          0.4831468086        0.3892066283        1.5251204830
 H          1.5875042366        1.6413774332        0.9432925179
 H          3.4685938105       -1.8503654117       -0.3607354398
  19
        -21.03950879
 C         -1.8441563946       -1.1850129799       -0.4209742738
 C         -1.4696375888       -0.2344388147        0.7101061479
 C         -1.1572637615        1.1816881881        0.2252630287
 C          0.0744978032        1.3040456895       -0.6728732012
 C          1.3921798091        0.9485636390        0.0316710789
 C          1.6408970211       -0.4776909820        0.0824817969
 C          1.8679279880       -1.6533072381        0.0927224237
 H         -2.1679435829       -2.1407480359       -0.0159074895
 H         -0.9912928484       -1.3669608184       -1.0697111683
 H         -2.6553144862       -0.7709853942       -1.0162847656
 H         -2.3040290644       -0.1758698299        1.4136092442
 H         -0.6099329052       -0.6376861473        1.2472763752
 H         -1.0178750249        1.8250418054        1.0983521872
 H         -2.0222125962        1.5606910087       -0.3257021056
 H          0.1396017069        2.3414199585       -1.0095802512
 H         -0.0438335283        0.6776301119       -1.5581263313
 H          1.3859088778        1.3469174650        1.0499512118
 H          2.2242513555        1.4102145899       -0.5076831860
 H          2.0512747250       -2.6854920224        0.1170661477
  19
        -21.03805953
 C         -1.8583746752       -1.1688144668       -0.5557169882
 C         -1.9607253851        0.2599707240       -0.0300956010
 C         -0.8575009586        0.6057698926        0.9818778917
 C          0.2803300365        1.4465502917        0.4001303228
 C          1.0719601466        0.7406932683       -0.7072496248
 C          1.6818825154       -0.4867184537       -0.2386082341
 C          2.1769366211       -1.4996392730        0.1638605711
 H         -2.6220380020       -1.3523809843       -1.3085873916
 H         -2.0023150650       -1.8784001153        0.2563065784
 H         -0.8836554274       -1.3596254904       -0.9967088856
 H         -1.9234933882        0.9613141760       -0.8663234767
 H         -2.9372947937        0.3795278428        0.4438492188
 H         -0.4421072360       -0.3162208184        1.3935042491
 H         -1.2906929495        1.1687162420        1.8114903448
 H          0.9664915208        1.7080437877        1.2095348662
 H         -0.1285164993        2.3751009649       -0.0051626569
 H          1.8623911175        1.4066296594       -1.0649714222
 H          0.4161689223        0.5127637340       -1.5505629500
 H          2.6154029047       -2.3877090312        0.5084319720
  19
        -21.03804554
 C         -2.2968834263       -0.5249235341        0.8903817586
 C         -2.1810917022        0.1028489525       -0.4939277173
 C         -0.7435499290        0.2298195896       -1.0032437765
 C          0.1360393925        1.1812043408       -0.1810017314
 C          1.0098608887        0.4586747781        0.8531054918
 C          1.9707444424       -0.4180060446        0.2148633272
 C          2.7550972446       -1.1385528412       -0.3317835122
 H         -1.8732503805        0.1254916661        1.6510417336
 H         -1.7811592367       -1.4825839974        0.9181783711
 H         -3.3426902150       -0.6929622769        1.1385243198
 H         -2.7397885261       -0.5105482334       -1.2051797482
 H         -2.6446033047        1.0924344342       -0.4808658463
 H         -0.7892572451        0.5911762595       -2.0330893587
 H         -0.2767732395       -0.7575209446       -1.0290175417
 H         -0.4928086047        1.9101760031        0.3336765514
 H          0.7969905165        1.7326097094       -0.8534872325
 H          0.3916263568       -0.1361838170        1.5277918264
 H          1.5550814418        1.1966729571        1.4482270142
 H          3.4480906031       -1.7706018350       -0.8008168720
  19
        -21.03794245
 C         -2.3391113029       -0.9433973188       -0.4235850134
 C         -2.3639322860        0.3739009922        0.3430763364
 C         -1.1607898693        1.2779554005        0.0650582599
 C          0.1825854101        0.6935133581        0.5231022710
 C          0.9697350125        0.0421558787       -0.6212948537
 C          2.2097522622       -0.5317651557       -0.1403297604
 C          3.2263059703       -1.0014786982        0.2827639636
 H         -3.2641230629       -1.4907842454       -0.2560663050
 H         -1.5149702646       -1.5709951963       -0.0945552983
 H         -2.2394318399       -0.7619310583       -1.4916698969
 H         -3.2708851056        0.9208375000        0.0733871872
 H         -2.4136772281        0.1656779384        1.4145606828
 H         -1.3314119141        2.2230054025        0.5852968677
 H         -1.1181637049        1.4997844245       -1.0035132571
 H          0.0153548938       -0.0429805065        1.3117644179
 H          0.8018347470        1.4862340929        0.9488758851
 H          1.2020334936        0.7941290003       -1.3806051025
 H          0.3785927084       -0.7456942381       -1.0920367621
 H          4.1205458973       -1.4153059446        0.6414609337
  19
        -21.03791592
 C         -3.4911629986       -0.3261587139       -0.2879883710
 C         -2.2516015906        0.0690693500        0.5060598612
 C         -1.0156486131        0.1729531563       -0.3848759228
 C          0.2290127771        0.5630324207        0.4094405147
 C          1.4830766823        0.6649373717       -0.4848474276
 C          2.5301629275       -0.2362254829       -0.0504197907
 C          3.3770507940       -0.9914145146        0.3311259247
 H         -3.6996504429        0.4103688445       -1.0608339913
 H         -4.3579173962       -0.3941003614        0.3648578196
 H         -3.3447683389       -1.2920367454       -0.7663249056
 H         -2.4253730700        1.0302747813        0.9954918632
 H         -2.0697647081       -0.6716100778        1.2882606041
 H         -1.1979969708        0.9173356659       -1.1642178002
 H         -0.8449165147       -0.7895081948       -0.8738082781
 H          0.3995792373       -0.1813743556        1.1905817765
 H          0.0510345707        1.5188461994        0.9056048750
 H          1.8794116839        1.6826290528       -0.4765648711
 H          1.2251056309        0.4173130714       -1.5177046808
 H          4.1261536966       -1.6494288592        0.6559207059
  19
        -21.03781019
 C         -2.6334236547       -0.8195888085       -0.4776381604
 C         -2.1688243102        0.2427838183        0.5143877531
 C         -1.1557354918        1.2316410446       -0.0822149352
 C          0.3013558363        0.9286465684        0.2705032178
 C          0.8047646105       -0.3982365147       -0.3075138589
 C          2.2200012712       -0.5725209395       -0.0515694867
 C          3.3896335264       -0.6943142093        0.1721173272
 H         -1.8008759285       -1.4108386364       -0.8480652453
 H         -3.1241250265       -0.3514959620       -1.3284793279
 H         -3.3448365323       -1.4920900314       -0.0030003290
 H         -3.0480443683        0.7937060408        0.8553534765
 H         -1.7333416141       -0.2402042773        1.3915984061
 H         -1.3771207133        2.2356675199        0.2861759539
 H         -1.2673271095        1.2534335852       -1.1683415925
 H          0.4171144465        0.9120084914        1.3569705466
 H          0.9298475843        1.7364333955       -0.1133963345
 H          0.6378077071       -0.4173479165       -1.3880843378
 H          0.2664714544       -1.2345996872        0.1438290422
 H          4.4141721945       -0.8123876052        0.3617428740
  19
        -21.03706095
 C         -1.6595304339       -1.2335585356       -0.5468393715
 C         -1.5862662435       -0.2273203881        0.5968832076
 C         -1.2093450449        1.1889505620        0.1403656014
 C          0.2727480285        1.5438717805        0.2757748637
 C          1.2138084599        0.7562877434       -0.6475345363
 C          1.5651714732       -0.5445751789       -0.1158028465
 C          1.8855830404       -1.6032212783        0.3426256681
 H         -0.6892679921       -1.3607053855       -1.0177477361
 H         -2.3751215793       -0.9043293001       -1.2975819932
 H         -1.9808327137       -2.2028123582       -0.1718988308
 H         -2.5641723105       -0.1934097495        1.0828210499
 H         -0.8638322496       -0.5753367634        1.3372564353
 H         -1.7664539744        1.9112014461        0.7421767168
 H         -1.5194317654        1.3270837431       -0.8979633464
 H          0.5863909667        1.4012827646        1.3125538124
 H          0.3820184694        2.6053276434        0.0400880677
 H          2.1423397149        1.3203170130       -0.7766219106
 H          0.7535482596        0.6349447848       -1.6314140850
 H          2.1488729012       -2.5387213357        0.7364415172
