! wb97x-v def2-tzvp def2/J RIJCOSX DEFGRID2 scfconv7 GCP(DFT/TZ) printgap
%output
    printlevel normal
end
* xyz 0 1
C -3.557126195445918 -3.8910324739351185e-05 5.056724233880658e-05
C -2.8590137138626863 -1.2047973215484808 5.589307579923021e-05
C -1.4648574077492138 -1.2146053022931245 3.330777544537083e-05
C -0.7877761387831815 3.25629735658609e-05 -1.379538412407993e-05
C -1.4649204093521586 1.2146350762925797 8.675255572300576e-07
C -2.859076088583585 1.2047554952752104 3.4205651654596084e-05
I 1.334747277834996 8.872945346478562e-05 6.818889285810197e-06
H -4.642143667032151 -6.756127817149617e-05 6.011179551877081e-05
H -3.3952132042105707 -2.148669823514494 6.949266919733371e-05
H -0.9231942471625331 -2.153428093745378 2.4703599532810604e-05
H -0.9233035467438677 2.1534846843947473 -1.953919292990375e-05
H -3.3953259245300975 2.1485993065421853 2.9114771579225766e-05
*
