! pbe def2-sv(p) def2/J RI DEFGRID1 loosescf d4 GCP(DFT/SV(P)) printgap
%output
    printlevel normal
end
* xyz 0 1
C 1.6796112889 -1.5153023431 -3.070160668
C 2.0161505676 -2.0771461713 -1.703082276
O 2.9300598475 -1.2090581234 -1.0031510404
P 2.4575582379 -0.0409879286 -0.0308435087
S 1.3644939418 1.3889558795 -0.797696323
O 3.8378242431 0.5189899359 0.4675309282
C 4.8536636791 -0.2984831728 1.1087003131
C 4.9449917829 0.0467643006 2.5814128116
S 1.6224515467 -1.1158211616 1.6264747058
C -0.0231187592 -0.393179885 1.6854234718
S -1.0525396462 -0.9502080186 0.2883528997
P -2.4147660934 0.687344507 0.2669616172
S -1.7609402061 2.3656649012 1.0323046231
O -3.6806370572 0.1897152356 1.0612685197
C -4.4131756262 -1.0154649266 0.7209907042
C -5.6144411747 -0.6899378349 -0.1422630615
O -2.9417583059 0.7296892697 -1.2280624716
C -2.0874242748 0.9673090366 -2.3668774166
C -1.9350081557 -0.3146482298 -3.1623863129
H 1.1925175641 -0.5485311944 -2.9662889259
H 2.5866932196 -1.38508726 -3.6536107735
H 1.0135417033 -2.1992850446 -3.5856607597
H 2.5498852742 -3.0260378728 -1.7824218611
H 1.1125210073 -2.2149823043 -1.1003033617
H 4.6128326051 -1.3524746624 0.9597726505
H 5.7785242978 -0.053507328 0.5844150547
H 5.7706832557 -0.5020089522 3.0230110003
H 5.116884278 1.1127198939 2.7032609542
H 4.0247333742 -0.2224318524 3.0940233115
H 0.0380446872 0.6978155853 1.6433416107
H -0.4687385799 -0.7282332034 2.6191153407
H -3.7357797161 -1.7102188206 0.2160257361
H -4.7165974001 -1.4284509642 1.6845718718
H -5.2949183347 -0.258026849 -1.0866612755
H -6.1718990645 -1.6016641903 -0.3328202583
H -6.2557648344 0.0239223103 0.3673261432
H -2.5893516409 1.7425055588 -2.9488396014
H -1.1197711539 1.3492022527 -2.0273600163
H -1.4559273529 -1.0788553553 -2.5547261242
H -2.9101201795 -0.6733011567 -3.478942533
H -1.3233545877 -0.1174132999 -4.0366560052
*
