! pbe def2-sv(p) def2/J RI DEFGRID1 loosescf d4 GCP(DFT/SV(P)) printgap
%output
    printlevel normal
end
* xyz 0 1
C 4.0474349577 1.4977016086 -1.5351791837
C 2.7515226439 0.7901234253 -1.872957913
O 2.4753848429 -0.2807851823 -0.9547592228
P 2.0667528303 -0.0097219959 0.5704934983
S 1.0233354391 1.6057094976 0.902199834
O 3.4024850252 0.044770405 1.421327855
C 4.4243464204 -0.9806910008 1.3702702876
C 4.3482145316 -1.8674969108 2.5967241691
S 1.2720052113 -1.9106094446 1.0085858652
C -0.2124788189 -1.886955579 -0.0246843313
S -1.5842340499 -0.9637817744 0.7366465361
P -2.1905326023 0.1941033378 -0.9475297307
S -0.7574244259 0.5755358753 -2.2280981648
O -2.9921472973 1.4309583343 -0.3678030275
C -2.407599529 2.5455208096 0.3319566507
C -2.5357738072 2.3668601049 1.8312364208
O -3.335147344 -0.6117702959 -1.6745868618
C -4.7207939347 -0.6881931291 -1.257677272
C -4.8895996975 -1.3331115333 0.101538816
H 4.8734840512 0.7910707979 -1.5246005069
H 4.2389040483 2.2648534242 -2.2787474508
H 3.9657933155 1.9677503188 -0.5552293807
H 2.7913699157 0.2992475963 -2.8464779369
H 1.9081768322 1.487901027 -1.8598803544
H 4.3054579832 -1.5601168096 0.4513226003
H 5.3655213139 -0.4284188457 1.341385651
H 3.4095404408 -2.4171864451 2.611497076
H 5.1738134075 -2.5717704307 2.5763721657
H 4.41410429 -1.2615304388 3.495993687
H -0.5116984735 -2.9260368314 -0.132799669
H 0.0184344105 -1.4316887641 -0.9914575228
H -1.3596150527 2.6550936747 0.0391389979
H -2.9739159008 3.4123243277 -0.0138404328
H -3.5747971659 2.204954486 2.1036697881
H -1.9404343551 1.5200376064 2.1648195802
H -2.1666449025 3.2612376403 2.3222444637
H -5.1336989247 0.321927818 -1.265711553
H -5.181662087 -1.2849104042 -2.0464805663
H -4.4293923824 -0.7190921322 0.8733355428
H -5.9495605608 -1.4323023391 0.3140800203
H -4.4281489995 -2.3169773451 0.1175746086
*
