! pbe def2-sv(p) def2/J RI DEFGRID1 loosescf d4 GCP(DFT/SV(P)) printgap
%output
    printlevel normal
end
* xyz 0 1
C 1.9824995996 1.9774939665 -2.2803064512
C 2.1032242148 0.5289516003 -1.8562553377
O 1.353658268 0.3058636281 -0.6402713592
P 2.0963924078 0.1857800648 0.7521669508
S 3.4575824003 1.5286388364 1.1680492621
O 2.6264954986 -1.3225315188 0.6834558285
C 3.6471180626 -1.8182353882 1.5732463137
C 4.9950490375 -1.8197302065 0.8794844607
S 0.4599876665 0.1347038936 2.0544830853
C -0.4681103296 -1.3051899805 1.3859312157
S -2.1965054855 -0.9041978437 1.0998991425
P -1.9784211101 -0.083021659 -0.858814432
S -0.9573684731 -1.2272407668 -2.0781196392
O -1.3107905398 1.3448662888 -0.7701816154
C -1.9538272778 2.5686489226 -0.3397729075
C -2.407217226 2.5272408471 1.1047472726
O -3.4681905218 0.2851227577 -1.264492091
C -4.6053829568 -0.5856621886 -1.1140632972
C -4.4284462066 -1.9126539533 -1.8210594469
H 0.9334052794 2.236202704 -2.3994745093
H 2.4258302545 2.6259629027 -1.5270872231
H 2.4988856359 2.1187177457 -3.224260541
H 3.1470153487 0.2489663444 -1.6903668729
H 1.6531745186 -0.1445722589 -2.5888476978
H 3.6752163378 -1.1965230691 2.472716014
H 3.3301913463 -2.8299598693 1.8319659728
H 4.9393446994 -2.3901008922 -0.0436826649
H 5.2970106243 -0.7999646255 0.6492915255
H 5.7343063131 -2.2669878198 1.5359261493
H -0.447597178 -2.0901723454 2.1367213763
H -0.0090196955 -1.6242209008 0.4490694347
H -1.1772672464 3.3214556571 -0.4887775134
H -2.7935902799 2.7631695363 -1.0093976797
H -3.2149488067 1.8104292219 1.2350730007
H -1.5812196185 2.251015959 1.7572974159
H -2.7634803311 3.5133468344 1.3866208191
H -4.7790520895 -0.7386707367 -0.0454836523
H -5.4257448285 -0.0098329961 -1.5462739903
H -3.6183377182 -2.4780693555 -1.3634004346
H -5.3469375194 -2.4854929359 -1.7448320344
H -4.1874256019 -1.7558854321 -2.8698143385
*
