! pbe def2-sv(p) def2/J RI DEFGRID1 loosescf d4 GCP(DFT/SV(P)) printgap
%output
    printlevel normal
end
* xyz 0 1
C 5.251965255 -0.3235910683 -1.3629678008
C 4.4295390965 -0.7568632438 -0.1654323337
O 3.466370127 0.2486527251 0.2063808189
P 2.0037925949 0.3374029746 -0.4152456736
S 1.8666981681 0.609724678 -2.3460495046
O 1.3923111998 1.5263230101 0.414130121
C 1.4987245079 1.6261954777 1.8556421946
C 2.5990976943 2.5922483023 2.2414265051
S 1.159219848 -1.4854531593 0.2998780592
C -0.0216604394 -1.8551308168 -1.0333473216
S -1.7256011978 -1.9981148805 -0.4536025402
P -2.0222782343 0.0337195188 0.1053276651
S -1.4504066399 1.3964166262 -1.1777537551
O -1.2909186037 0.1845360773 1.4965181517
C -1.5742417285 -0.6648355029 2.6409201
C -2.5190546309 0.0281852419 3.5999359907
O -3.556336094 0.0768877655 0.5164343081
C -4.6076295739 0.3346660041 -0.4313391664
C -4.7373257416 -0.7668661938 -1.4628677714
H 4.6144287387 -0.2028040648 -2.2360117107
H 5.7425559229 0.624066315 -1.158525851
H 6.0022682413 -1.0790625492 -1.5725045486
H 5.0535140452 -0.8702026219 0.723294237
H 3.9071616307 -1.6961443307 -0.3663141725
H 0.5180861087 1.9834326665 2.1762229589
H 1.6810928914 0.6291254603 2.266219039
H 2.4168322251 3.5617274837 1.7856489068
H 2.6143909727 2.6990842524 3.3215608936
H 3.561738247 2.2206092649 1.9006529144
H 0.235703245 -2.8245944136 -1.4523828864
H 0.055985765 -1.067002272 -1.7885699987
H -1.993409777 -1.6098732021 2.2853079622
H -0.5989254614 -0.8460902809 3.0969274462
H -3.4795063923 0.2013063545 3.1222404058
H -2.6606764889 -0.6027733384 4.4717347232
H -2.1052634401 0.9830766015 3.9120193827
H -5.5018270828 0.4130053855 0.1886721316
H -4.4045747133 1.2940823199 -0.9168600195
H -4.8120296136 -1.7361138367 -0.9762191916
H -5.6256750766 -0.5933017147 -2.0616525511
H -3.8674266918 -0.7675757105 -2.1181416567
*
