! r2scan-3c def2/J RI DEFGRID2 scfconv6 printgap
%output
    printlevel normal
end
%cpcm
    smd true
    smdsolvent "water"
end
* xyz 0 1
C 3.7508331184 -1.8231341959 -2.2469719409
C 2.4952785221 -0.9769947877 -2.2245589156
O 1.785175815 -1.1111760628 -0.9788600744
P 2.3495863503 -0.5390689624 0.3868649288
S 3.4445253139 1.0884053695 0.2579668381
O 3.0884153587 -1.8107366981 0.9877801639
C 4.0100410455 -1.7210907425 2.0882793487
C 3.3202666841 -1.3337290958 3.380502776
S 0.551503447 -0.3994983736 1.4804361614
C 0.1110008919 1.2629804114 0.9209772233
S -0.3980488327 1.3446318654 -0.8282307166
P -2.434037497 0.8298890526 -0.5942562206
S -3.5404561119 0.8160217502 -2.2091556041
O -2.8169997868 1.9052651214 0.5101433388
C -4.1873546737 2.2878272251 0.7512087382
C -4.9927800081 1.1585956897 1.3586901097
O -2.4518321318 -0.5218912838 0.2534188018
C -2.6172790245 -1.8087222932 -0.3614154548
C -1.4365100238 -2.1859607053 -1.2323580927
H 3.5112116125 -2.8559744633 -2.0084788479
H 4.2016498937 -1.7732022737 -3.2331103392
H 4.4629027552 -1.4474798483 -1.5129634323
H 1.7727425623 -1.2996936401 -2.9753102179
H 2.733684536 0.0809437212 -2.3752373716
H 4.4455449823 -2.7194626415 2.1466845471
H 4.7841366439 -0.9904842927 1.8324514931
H 2.9538397592 -0.3100974602 3.3148360692
H 2.4789858039 -1.9948606084 3.572527165
H 4.0283027417 -1.4018008826 4.2002344928
H 0.9869617652 1.907460407 1.0014101252
H -0.7003674321 1.6155429704 1.549666161
H -4.1037081597 3.1383446455 1.4290981367
H -4.6275237542 2.6097452925 -0.1977388495
H -4.4941231438 0.7723478609 2.2438558911
H -5.9777773785 1.5261622554 1.6289442491
H -5.1034094289 0.3521795063 0.6350928389
H -2.7315711132 -2.490827575 0.4818208738
H -3.5343263077 -1.7888636293 -0.9593131022
H -0.5152521838 -2.188869415 -0.6549884728
H -1.5989285186 -3.1734430884 -1.6522102894
H -1.3376706115 -1.467578331 -2.0471721131
*
