! pbe def2-sv(p) def2/J RI DEFGRID1 loosescf d4 GCP(DFT/SV(P)) printgap
%output
    printlevel normal
end
* xyz 0 1
C 3.2456213459 -0.955609921 -3.1649093185
C 4.1042675276 -0.7363131282 -1.9376727243
O 3.5425652074 0.2281696911 -1.0259449708
P 2.0618313119 0.1970397452 -0.4515208351
S 0.6584815925 0.8965698385 -1.6233717263
O 2.1871036086 1.1322143887 0.8084914028
C 3.2105149925 1.049311985 1.8311493807
C 2.7145456225 0.2763315213 3.0378194314
S 1.9127955123 -1.8251136608 0.2108687194
C 0.2798308183 -1.8046683599 0.9885629354
S -1.0969684767 -1.6877484952 -0.2001005267
P -1.9594747144 0.1079671906 0.4970137274
S -0.961921418 1.2259885323 1.7493148965
O -3.2633431634 -0.5650776049 1.1517310129
C -4.0544438325 0.1036540448 2.1491478426
C -4.8676461219 1.2375788249 1.5569717907
O -2.4546077672 0.9101793498 -0.7724182571
C -3.1435242575 0.2868416436 -1.8842565487
C -2.7794336776 1.0412920511 -3.1451312929
H 3.7548875775 -1.6305938709 -3.8450663008
H 2.2887194983 -1.3919961559 -2.8808820398
H 3.0541079805 -0.0105820311 -3.667969879
H 5.0723534331 -0.3052311587 -2.1991286357
H 4.2472860959 -1.673473084 -1.3929043156
H 4.1074971495 0.5993586933 1.4018167315
H 3.4053677749 2.0920263555 2.0869921061
H 3.4178590795 0.407855991 3.8538540569
H 1.7418358537 0.6582278383 3.3417341602
H 2.6291525857 -0.7841427904 2.8135438582
H 0.2118449643 -0.9627012449 1.6826978361
H 0.1933513585 -2.7568396491 1.5054063622
H -4.6908725536 -0.6843389288 2.5540084899
H -3.3831885628 0.4788216522 2.9284833233
H -5.4693286101 1.6947742583 2.336213998
H -4.1997687861 1.9906462758 1.1380887231
H -5.5199889941 0.8667195026 0.7704062645
H -2.8373912174 -0.761736461 -1.9490774187
H -4.2145824503 0.3394223293 -1.6752480773
H -3.2718757568 0.57931782 -3.9943083417
H -3.0896080859 2.0788127058 -3.0621172743
H -1.701629802 1.0138018492 -3.289979048
*
