! pbe def2-sv(p) def2/J RI DEFGRID1 loosescf d4 GCP(DFT/SV(P)) printgap
%output
    printlevel normal
end
* xyz 0 1
C 4.5816895652 -0.4673107431 -2.3278768788
C 4.4534038285 -0.4034236846 -0.8192866976
O 3.4544816115 0.5746692324 -0.4387527304
P 2.0231074591 0.1914312706 0.1243805194
S 1.1033907941 1.8413532252 0.625612644
O 2.2318448193 -0.874351004 1.2981597809
C 2.2563582581 -0.4864070971 2.6854008991
C 3.5616089233 0.194904331 3.0415647695
S 1.277224405 -1.1206209547 -1.3534927141
C -0.0273326181 -1.9961157409 -0.4156115102
S -0.924098936 -0.9843530333 0.7814126353
P -2.1641428112 0.0951448205 -0.5846644905
S -1.3268853453 1.0294058617 -2.08457237
O -3.0639324908 0.9848613729 0.3720517413
C -2.6068493688 2.1972261676 1.0014615451
C -2.1893226745 1.9323373788 2.4338366314
O -3.1677444546 -0.9986469021 -1.110390476
C -4.0369065835 -1.7865908991 -0.2559227422
C -5.4082046222 -1.1522306717 -0.1508373821
H 3.6504763838 -0.8105130038 -2.7745255423
H 4.8131345367 0.5180399931 -2.7230861157
H 5.3781563846 -1.1566945656 -2.5893220464
H 5.3778148337 -0.0486608208 -0.3600681195
H 4.1799282903 -1.3753607461 -0.4013984559
H 1.4091088812 0.1795773359 2.8751940435
H 2.1212652492 -1.4236822116 3.2262162715
H 3.6627665989 1.1143848496 2.4652008804
H 3.5637794989 0.4399148737 4.0987995257
H 4.403108198 -0.4563594632 2.8200864979
H 0.4344535115 -2.7998864017 0.1526118232
H -0.7161504733 -2.383921031 -1.1646569124
H -1.7787390512 2.6175537036 0.4219124886
H -3.4621858885 2.8735926875 0.9543926337
H -1.9370341247 2.8757634689 2.9064740316
H -2.9981936531 1.4550432669 2.9791787456
H -1.3127154038 1.2887198113 2.4569517806
H -4.0881672432 -2.7594901102 -0.7480940636
H -3.570311673 -1.8887187158 0.7274274442
H -6.0564307949 -1.8032978444 0.4274670731
H -5.3406251495 -0.1845332439 0.3384455709
H -5.8305283473 -1.0131578856 -1.1423106789
*
