! pbe def2-sv(p) def2/J RI DEFGRID1 loosescf d4 GCP(DFT/SV(P)) printgap
%output
    printlevel normal
end
* xyz 0 1
C 4.1718061465 -0.8101664573 -1.8166872638
C 2.8631255839 -0.0731208921 -1.9980640688
O 2.4514983468 0.6520534306 -0.8140453208
P 2.2864533978 0.0762939268 0.6450863611
S 1.257762638 1.2970820818 1.7761090376
O 3.7884896648 -0.1456906341 1.11200062
C 4.1611028769 -0.2582859193 2.49654474
C 3.610101893 -1.5131591316 3.1423198424
S 1.5019850153 -1.8959746389 0.4414658835
C -0.2326862763 -1.4367926918 0.3330538053
S -0.5930698089 -0.6699272703 -1.2998562732
P -2.2871651184 0.4604541687 -0.7852028565
S -3.1198707522 1.3824459984 -2.3000787214
O -1.6536507728 1.3245207687 0.3802745533
C -2.3946347929 1.9375094373 1.4558311414
C -3.3502707426 3.0002981355 0.9580005763
O -3.261465579 -0.5085416516 0.0303606147
C -4.3167621412 -1.2337228589 -0.6234149118
C -3.7808622082 -2.3900100214 -1.4430075636
H 4.9450164556 -0.1267253422 -1.475563176
H 4.0587965429 -1.6089662919 -1.086650689
H 4.4660487542 -1.2404983569 -2.7690116025
H 2.0560823502 -0.7601516566 -2.2711185189
H 2.9408158259 0.7115854897 -2.7521854394
H 5.2516343041 -0.2634801377 2.4707114386
H 3.8061676628 0.6329999167 3.0237081371
H 4.0311594098 -1.6164107133 4.1372441684
H 2.5267023975 -1.4449925423 3.2240185201
H 3.8640019679 -2.3880122663 2.5495099996
H -0.462037399 -0.7113497444 1.1145132272
H -0.8103680604 -2.3507235687 0.4371629923
H -2.9277545191 1.1528831341 1.9974812587
H -1.6098638874 2.3578454262 2.0891018236
H -3.8295562363 3.4785000947 1.8063073122
H -2.8136986113 3.7480219366 0.3786327147
H -4.1120400494 2.5519395755 0.3211115797
H -4.9516469843 -1.5754121616 0.1950847591
H -4.8697782327 -0.5375348615 -1.2620556084
H -3.1967906299 -3.0634178482 -0.8213637287
H -4.6122395473 -2.9357717356 -1.8772914175
H -3.1502214507 -2.0117989284 -2.2471764758
*
