! r2scan-3c def2/J RI DEFGRID2 scfconv6 printgap
%output
    printlevel normal
end
%cpcm
    smd true
    smdsolvent "water"
end
* xyz 0 1
C 3.1300221814 -4.6577056112 -0.7069403586
C 3.3191882428 -3.6274307374 -1.8089644756
O 3.3341153433 -2.2927429308 -1.2646093807
C 2.1870253493 -1.6609971394 -1.1174307311
O 1.1073284523 -2.1065858526 -1.4405783083
C 2.3914013831 -0.2947523871 -0.4939688777
C 1.0584496209 0.4072326456 -0.3074864833
H 0.466217891 0.3167362093 -1.2315059172
C 1.1803592931 1.8931663428 -0.0320542596
O 2.1258602135 2.5593938438 -0.3857500961
O 0.1173974296 2.3575945663 0.5895816627
C 0.0423695194 3.775496074 0.8501499377
C -0.8513007395 4.0006946707 2.0533927474
S 0.0762753543 -0.4030834003 0.9953602566
P -1.8458558894 0.1673803031 0.2892707648
S -1.9756414686 0.9558028774 -1.4983429427
O -2.6872406686 -1.1864169945 0.4690776486
C -2.4578414516 -2.2986677437 -0.4018077328
O -2.5020163293 1.0709947336 1.4027675637
C -2.5750815545 0.6449013083 2.7788275537
H 3.1824471414 -5.6534993572 -1.1344175558
H 3.9069046564 -4.5480041577 0.0444896358
H 2.1592683826 -4.5262408204 -0.234716979
H 2.5151590774 -3.694801726 -2.5473471771
H 4.2899446867 -3.7353553781 -2.2927923598
H 3.0291566775 0.3077406503 -1.1446617089
H 2.9089290076 -0.4187223088 0.4584860582
H 1.0599456683 4.1427572375 1.0136488892
H -0.3674683287 4.2488500826 -0.0469874101
H -0.9222035655 5.0657794278 2.246943065
H -1.8426421884 3.6053457958 1.8510180074
H -0.44000471 3.5029131721 2.9268166828
H -3.0655619776 -3.1093127787 -0.009184144
H -1.4018205379 -2.5739534885 -0.4035850257
H -2.7632922546 -2.0445602761 -1.4174124886
H -2.9260066663 1.5133816034 3.3300698887
H -1.587935955 0.3383599578 3.1253304337
H -3.2761550592 -0.1819923435 2.8713640137
*
