! r2scan-3c def2/J RI DEFGRID2 scfconv6 printgap
%output
    printlevel normal
end
* xyz 0 1
C 0.6245880623 1.6916267066 -0.0769874948
C 1.4146086477 0.384302589 -0.2503700774
H 1.66785482 0.2265384826 -1.3079586728
C 0.5479464084 -0.8007088555 0.1922440314
H 0.3911686391 -0.7414155676 1.2785390305
C -0.8182430865 -0.7407431717 -0.5066909917
H -0.6501747501 -0.84100596 -1.5909575432
C -1.4773913724 0.6305924536 -0.2641846623
H -2.3793183585 0.7229000401 -0.8891213524
O -0.6351701914 1.6590173855 -0.7291684315
O -1.7794705842 0.7552615024 1.0851069285
O -1.5836179852 -1.8095462772 -0.0174662942
O 1.2202799219 -1.9878637835 -0.1465903712
O 2.5711853154 0.3995057509 0.5495913959
H 1.152689819 2.5330545965 -0.5251904787
H 0.4919649721 1.8658838336 0.9978130545
H -2.3130778829 1.5501885248 1.2394152869
H -2.4547996922 -1.8212093894 -0.4382599235
H 0.6610945958 -2.7349277707 0.1142344628
H 3.2413703253 0.9700895935 0.1478870337
*
