! wb97x-v def2-tzvp def2/J RIJCOSX DEFGRID2 scfconv7 GCP(DFT/TZ) printgap
%output
    printlevel normal
end
%cpcm
    smd true
    smdsolvent "water"
end
* xyz 0 1
C -1.2478529657391004 0.17298425022286387 -6.398367577243844e-05
C 0.11404550679095721 -0.41613009869048295 -0.0007011687129842612
O 1.1511080541196361 0.22979343733592827 0.0001572457472259418
H -1.2229443174686554 1.2639656922213376 0.0005770813725379364
H -1.7925867712884656 -0.2015019276451643 -0.8762507939636691
H -1.79269458566978 -0.20254626620953267 0.8756148157739465
H 0.1565556231461024 -1.5241750602738267 0.00046135652062744166
*
