! pbe def2-sv(p) def2/J RI DEFGRID1 loosescf d4 GCP(DFT/SV(P)) printgap
%output
    printlevel normal
end
* xyz 0 1
C 3.8093600447 -2.1925001664 -2.5262859797
C 4.1035370518 -1.2979241538 -1.3389877767
O 3.1861024966 -0.1749636795 -1.311923798
P 1.9842153636 -0.0459713266 -0.287804603
S 1.1597614795 1.7121280475 -0.5639361866
O 2.5691300662 -0.3308848305 1.1741807429
C 2.9285562608 0.7260098741 2.0811834139
C 4.2231528983 1.3921389042 1.6621638632
S 0.9461126623 -1.8539890206 -0.5804083571
C -0.1297163509 -1.9371330587 0.8975020608
S -0.5184267915 -0.3395790611 1.6567167679
P -1.9819725131 0.3523225731 0.2933891096
S -2.4917934396 2.2278477535 0.5082039466
O -3.1488998394 -0.7253229084 0.4634312303
C -4.0241237819 -0.7134225812 1.6072775719
C -5.3104221954 0.024897834 1.2921974654
O -1.4018188623 -0.1164706061 -1.1012465351
C -1.7108289591 0.5787277021 -2.3246442413
C -3.1535851064 0.3633473595 -2.7250597084
H 2.8217314124 -2.6384836962 -2.4306102857
H 3.8450018002 -1.6129243633 -3.4445436759
H 4.5543939414 -2.980537438 -2.5697079841
H 5.0923114575 -0.8435598696 -1.42323093
H 4.026524142 -1.8458494587 -0.3969927439
H 2.1102140499 1.4529049212 2.1140127978
H 3.0163313856 0.228768341 3.0480176396
H 4.4834460724 2.1601501693 2.3835710386
H 5.0251889574 0.6607364664 1.6072491308
H 4.0959915333 1.8552582806 0.6836245312
H 0.3862117564 -2.5101146846 1.66430121
H -1.0479481554 -2.4279986441 0.580763987
H -4.2143200453 -1.7660312755 1.8256416065
H -3.5056264991 -0.250610158 2.453377141
H -5.7957432112 -0.4226175158 0.4294770564
H -5.974371381 -0.0308662081 2.1486686458
H -5.0981279001 1.0696924871 1.0755494281
H -1.4908246372 1.6426064124 -2.1852332216
H -1.0123674272 0.1555554141 -3.0488146377
H -3.366925113 -0.6997440289 -2.7973263248
H -3.8086637969 0.8079130289 -1.9764344468
H -3.3356881204 0.8389864847 -3.6834332039
*
