! r2scan-3c def2/J RI DEFGRID2 scfconv6 printgap
%output
    printlevel normal
end
* xyz 0 1
C 3.1939864349 2.3749673967 2.2506287871
C 1.8025116172 1.7966127092 2.1063456125
O 1.6098054546 1.1914983735 0.8093473717
P 2.3334023832 -0.154995154 0.3915464419
S 2.6883119631 -1.4284153421 1.8436219343
O 3.61637368 0.3893534105 -0.3692428275
C 4.7471208363 -0.4466162086 -0.6696550807
C 4.4186058553 -1.4991455242 -1.7087530045
S 1.0308240147 -0.79503739 -1.1494790759
C -0.1237968699 -1.6710564099 -0.058517013
S -1.1538280565 -0.5510918272 0.9120268489
P -2.4147948814 0.0757931454 -0.6987182087
S -2.7559054497 -1.3023976304 -2.0459279112
O -1.7836285942 1.3428030451 -1.3801569032
C -1.1147915369 2.4730630706 -0.7681896523
C -1.8465116681 3.0338887954 0.4316727515
O -3.6754937897 0.6750192824 0.0573559587
C -4.5660782533 -0.1173753845 0.8673952015
C -5.6885739335 -0.7113099264 0.0389303205
H 3.2673023538 2.905730809 3.1946050181
H 3.9312440651 1.5731085285 2.2377836807
H 3.4043007371 3.0581162978 1.4319730256
H 1.0337459993 2.5687899525 2.152949716
H 1.6135118242 1.0380215624 2.8723605646
H 5.5025234622 0.2531528298 -1.0294566423
H 5.0855249253 -0.9175182632 0.2589959474
H 3.7057674569 -2.2158224162 -1.3022133829
H 3.9825696004 -1.0371098545 -2.59116048
H 5.3255790465 -2.0257858438 -1.9879059796
H 0.4370707038 -2.2834034499 0.6479157341
H -0.7620544532 -2.2790499319 -0.7013039268
H -0.1037284988 2.1551680343 -0.5000674426
H -1.0642338893 3.197641108 -1.5827845643
H -1.8490430537 2.313085621 1.2474244322
H -1.3420165868 3.9384679624 0.7583745808
H -2.8736968272 3.2721560944 0.16817118
H -3.9924035051 -0.8997851766 1.3717259155
H -4.9523633924 0.5856478841 1.6080264271
H -5.2900181045 -1.4036813832 -0.6992795609
H -6.3719492814 -1.2439888684 0.6923946585
H -6.2272459313 0.0767028135 -0.4800579435
*
