! pbe def2-sv(p) def2/J RI DEFGRID1 loosescf d4 GCP(DFT/SV(P)) printgap
%output
    printlevel normal
end
* xyz 0 1
C 1.6920052543 -1.3983488853 -2.6508883631
C 2.4500904305 -0.1060943044 -2.4337291437
O 2.0405686363 0.5785627583 -1.2254306054
P 2.1804488931 0.0160636959 0.24240535
S 2.3158277461 1.4150120064 1.605678858
O 3.4833711576 -0.8914635466 0.1003042586
C 4.2863094662 -1.2799329948 1.2286605588
C 3.5456146596 -2.1910132667 2.185930024
S 0.6253431077 -1.4053587445 0.5437322628
C -0.3876707478 -0.5564268719 1.7946038251
S -2.132005514 -0.4966771814 1.3439924328
P -1.9380288432 0.6339841243 -0.4488098381
S -0.6339191334 2.0987246034 -0.3619604786
O -3.4439275835 0.9918020787 -0.8034421746
C -4.4142426156 1.5189852841 0.1207986917
C -3.9500506753 2.7935573281 0.7932101293
O -1.5581362946 -0.3193021851 -1.6469222618
C -2.3972282974 -1.3605455221 -2.2143728383
C -2.2899286538 -2.6616211808 -1.4438745307
H 0.6221751636 -1.2068900968 -2.6247614592
H 1.9617758048 -1.8107916648 -3.6180135364
H 1.9422949266 -2.11753642 -1.8724199706
H 2.232094135 0.6250522454 -3.2142116745
H 3.5261307531 -0.2832459276 -2.3770647237
H 5.1414102528 -1.7822223791 0.7738766096
H 4.6161394105 -0.3722417507 1.7433232949
H 4.2391125122 -2.5554592697 2.9368829946
H 2.7507378663 -1.6364242171 2.6823653861
H 3.1122829947 -3.0336091348 1.6533365687
H 0.0037411915 0.4572106681 1.9214556902
H -0.339658772 -1.1160601495 2.7254448828
H -5.2920606569 1.6954318148 -0.5034170753
H -4.6323134795 0.7468830208 0.8635074476
H -3.6772081023 3.5384195443 0.0491662589
H -4.7463229625 3.183396711 1.4189314445
H -3.0759820595 2.5959908507 1.4124808157
H -3.4256431335 -0.998714166 -2.2489729019
H -2.0116927536 -1.468032662 -3.2299194528
H -2.7886767426 -3.4425687391 -2.0091648154
H -1.246376927 -2.932390443 -1.3031938063
H -2.7609772633 -2.5757089091 -0.4683298905
*
