! pbe def2-sv(p) def2/J RI DEFGRID1 loosescf d4 GCP(DFT/SV(P)) printgap
%output
    printlevel normal
end
* xyz 0 1
C 4.1432014449 -2.7250442182 1.3136782398
C 4.3721632363 -2.1699809696 -0.0828102321
O 3.1208284652 -2.0410242969 -0.7881586951
C 2.4357621224 -0.9286653765 -0.6583386825
O 2.807324329 0.0474882475 -0.0355687187
C 1.1034036134 -1.0033293472 -1.3655167467
C 0.5029056907 0.3898242457 -1.5052810865
H 0.8902302958 0.9176223825 -2.3775812756
C 0.7202111346 1.2449484323 -0.2713649304
O 0.2446173711 0.9503217702 0.809860295
O 1.3299810681 2.3661346526 -0.5474638401
C 1.5110956765 3.3212824388 0.519052323
C 0.275592852 4.194989836 0.6674368989
S -1.3108928549 0.3401066059 -1.7189162056
P -2.0069291941 -0.2427247344 0.1891996736
S -1.2128702335 -1.7360022645 1.1990832787
O -2.3588714034 1.1175107269 0.9391621341
C -2.3292885234 1.2214481353 2.3696896256
O -3.5120441549 -0.6099861771 -0.2398256807
C -3.8304519245 -1.8372433849 -0.9021100364
H 3.6331720395 -3.6826760842 1.2572341276
H 5.0981282506 -2.8540828631 1.8120952259
H 3.5306208284 -2.037538533 1.8938532953
H 4.9593657799 -2.8559267603 -0.6931721341
H 4.8509053718 -1.1876968352 -0.0385889245
H 0.4675828654 -1.6344155299 -0.7327415578
H 1.2070706378 -1.4939407081 -2.3315635522
H 1.7227046913 2.7718194649 1.440162976
H 2.3817825407 3.9020333389 0.2160290189
H -0.5881537492 3.5812752374 0.9158928386
H 0.4380815423 4.9151295006 1.4623053599
H 0.0760899701 4.7213174916 -0.261818845
H -1.329653056 0.983257038 2.7344729095
H -3.0580620483 0.5442919346 2.8137780276
H -2.5832832238 2.2556239256 2.5881748479
H -4.9078556699 -1.9489887069 -0.8120621988
H -3.3183100794 -2.6681408534 -0.4127366408
H -3.5363940795 -1.7813555919 -1.9497132722
*
