! r2scan-3c def2/J RI DEFGRID2 scfconv6 printgap
%output
    printlevel normal
end
%cpcm
    smd true
    smdsolvent "water"
end
* xyz 0 1
C 4.7521049035 -1.3169913367 -1.1549575405
C 4.7465867656 0.0690471347 -0.5435134968
O 3.5971526251 0.2860742118 0.293443716
P 2.1196140257 0.39300486 -0.2912471294
S 2.0301967198 1.337494338 -2.0120296731
O 1.3708742299 1.0252964689 0.9527873838
C 1.492313423 2.4308386628 1.2610476437
C 0.6819837685 2.6955340492 2.5116554134
S 1.3842363621 -1.5678709944 -0.2060593534
C 0.1216223945 -1.5081759443 -1.5273056409
S -1.5372246925 -1.8678433857 -0.9168635919
P -1.8761493719 -0.0709395226 0.1711305284
S -1.3174043341 1.5747516012 -0.7349355116
O -1.2269518916 -0.2208988239 1.5938369213
C -1.1571926223 -1.4268264898 2.3979054246
C -2.5100693175 -2.0594267187 2.6368886384
O -3.4316511315 -0.1375615626 0.4792301796
C -4.4110606909 0.0934439847 -0.5520444442
C -5.7314327588 0.4079798168 0.1215234118
H 4.6283393581 -2.0718771043 -0.3826403793
H 3.9372033477 -1.4081035011 -1.8718832195
H 5.693357987 -1.4769276107 -1.6708169903
H 4.7515073366 0.8343614743 -1.3262830632
H 5.5914233782 0.217996334 0.130173369
H 2.550582454 2.6651013051 1.4048922357
H 1.1092651567 3.0003832385 0.4071070892
H 0.7342933258 3.7519122831 2.7538063548
H -0.3546704519 2.4160272827 2.3388450398
H 1.0726413348 2.1100486951 3.3386615844
H 0.3532173173 -2.2863423967 -2.2497078785
H 0.146341635 -0.5173106054 -1.9896580646
H -0.4769894238 -2.1267068928 1.9038795564
H -0.7058149993 -1.0735947072 3.3261943848
H -2.9166626092 -2.4493276202 1.7061803238
H -2.3939893541 -2.877613226 3.3410716839
H -3.2014511094 -1.3272320728 3.0454986467
H -4.0709954198 0.925648443 -1.1779089531
H -4.4788551811 -0.8095626615 -1.1643670614
H -5.633644716 1.2987673331 0.735675127
H -6.4865358532 0.5785692623 -0.6386763928
H -6.0347260571 -0.4234153563 0.7507815753
*
