! pbe def2-sv(p) def2/J RI DEFGRID1 loosescf d4 GCP(DFT/SV(P)) printgap
%output
    printlevel normal
end
* xyz 0 1
C 3.7667707922 -1.1801657982 -2.093834852
C 2.6483148993 -0.2182453308 -2.4286968976
O 2.3811735037 0.7228981368 -1.3634663665
P 2.0761636803 0.3907681945 0.1417325839
S 1.1531108708 1.8380217111 1.0838784454
O 3.5561401552 0.1485534386 0.6925509418
C 3.9122289124 0.2388303944 2.0797965717
C 3.3099789726 -0.8788434871 2.9081239214
S 1.1487068683 -1.5238642823 0.2092564681
C -0.1955471124 -1.1816240906 1.3865140558
S -1.8581194712 -1.4551106978 0.7241534127
P -2.0586652179 0.2527785788 -0.5257111642
S -0.7399886906 0.4885975757 -1.9555585537
O -2.0720772644 1.5466260284 0.3702185443
C -3.0184506661 1.8420326946 1.4275900672
C -2.4665494885 1.4470811887 2.7835135919
O -3.5789466666 0.1509267681 -0.9754911031
C -4.221446694 -1.0384484604 -1.4748343204
C -3.4653643597 -1.6803473232 -2.6184531779
H 3.4757056273 -1.824203042 -1.2653991675
H 3.9727950169 -1.7962663186 -2.9635054471
H 4.6630856441 -0.6312561887 -1.816718067
H 1.7158258969 -0.7442353383 -2.6526671981
H 2.9049483809 0.4293118525 -3.2683976546
H 5.0020195338 0.1889671298 2.0699280551
H 3.5891564205 1.2145894114 2.4571829401
H 3.7374624362 -0.8526379342 3.9052618707
H 2.232525345 -0.7447544455 2.9843156331
H 3.5181944175 -1.8427971692 2.451277583
H -0.1011938374 -0.143376881 1.7193658383
H -0.1014881846 -1.8824110382 2.2121689078
H -3.1515825431 2.9228768912 1.3586684134
H -3.962115135 1.338276349 1.2106569186
H -1.4615597327 1.8483432712 2.899113159
H -3.1047712512 1.862129312 3.5570559004
H -2.4375345917 0.365797514 2.892981019
H -4.33122842 -1.7388816887 -0.6424101368
H -5.2025031615 -0.6825357257 -1.7945320708
H -3.3045732579 -0.9612248599 -3.4184268268
H -2.4934805634 -2.0331681451 -2.2754968555
H -4.0341581766 -2.5226835865 -2.9985838679
*
