! pbe def2-sv(p) def2/J RI DEFGRID1 loosescf d4 GCP(DFT/SV(P)) printgap
%output
    printlevel normal
end
* xyz 0 1
C 4.2059191448 0.3047259498 -2.5183638592
C 4.0477395164 -1.1253168985 -2.0416382963
O 3.9322393749 -1.2247780366 -0.612052495
P 2.8566511784 -0.4717506927 0.271196496
S 3.2061838041 1.4030378151 0.7541390713
O 2.9443743045 -1.4808993488 1.4863301823
C 2.5302587645 -1.134106537 2.8180306282
C 1.023913969 -1.2051643021 2.9710926028
S 1.0147533407 -0.8433501008 -0.7456623227
C 0.2599332921 0.8043111224 -0.6360981173
S -1.0312090601 0.9357597321 0.622304816
P -2.7519045172 0.5539649435 -0.5907172085
S -2.4137641889 0.1633769112 -2.478816369
O -3.6515958311 1.8377682993 -0.427938392
C -3.800868423 2.6467933909 0.7635522907
C -4.1805919628 1.8338567522 1.9816008591
O -3.6076922277 -0.5515065094 0.1694826829
C -3.4127042 -1.9609314673 -0.0202621617
C -2.1734014074 -2.464075391 0.6929403145
H 4.3945361907 0.3107676979 -3.5871750371
H 3.2986596885 0.8736457927 -2.3170267327
H 5.0346843901 0.7854841924 -2.0036156504
H 4.9346335699 -1.7195621815 -2.2685557794
H 3.1674774658 -1.5905360096 -2.4949753216
H 3.0324370893 -1.8687478276 3.4493793133
H 2.8997665342 -0.1302729183 3.0542561536
H 0.5480737679 -0.4141941121 2.3925543409
H 0.6592734842 -2.1684540893 2.6236237569
H 0.7631818669 -1.0764147286 4.0165131258
H -0.1811129099 1.0174824652 -1.6101612223
H 1.0375104238 1.5248759483 -0.371129637
H -2.8625021297 3.1820631837 0.9307613813
H -4.5850543334 3.352937203 0.486604787
H -3.3691677582 1.1586246002 2.2476363083
H -4.3661397711 2.506750732 2.81310105
H -5.0753620463 1.2503830294 1.7818670722
H -4.3193161026 -2.4079174488 0.3908315414
H -3.3535368048 -2.1659836461 -1.0943329914
H -2.1814600807 -2.1428102368 1.7313974675
H -2.1534016101 -3.5483820615 0.6518359486
H -1.2770716761 -2.0818657398 0.2070704994
*
