! pbe def2-sv(p) def2/J RI DEFGRID1 loosescf d4 GCP(DFT/SV(P)) printgap
%output
    printlevel normal
end
* xyz 0 1
C 3.8552217703 -4.0691565652 -1.5501823436
C 2.9243648854 -3.0328504035 -2.1590754268
O 2.797760753 -1.8820249775 -1.3004748035
C 1.9027120694 -1.9148574879 -0.3358162698
O 1.1600867232 -2.8451146998 -0.1127019397
C 1.871374971 -0.6095453653 0.4356266674
C 1.2062856173 0.4683080519 -0.4224877678
H 1.8415552738 0.6902759816 -1.2868986869
C 1.0184263893 1.7607443936 0.3576533603
O 1.8528809714 2.1755558627 1.1245002092
O -0.1156401083 2.3663291729 0.0629187137
C -0.3961820757 3.6288945145 0.7009941333
C 0.2045962112 4.7766800921 -0.0917426682
S -0.3538802319 -0.1069516145 -1.1715569121
P -1.696362105 0.0778892642 0.4687597483
S -1.0048902144 0.2742715446 2.2922155943
O -2.7197516025 1.2209219862 0.0965636256
C -3.4223741459 1.2487112211 -1.1628238804
O -2.6165303377 -1.2180111689 0.2628362959
C -2.1569329598 -2.5198140945 0.6415103568
H 3.4327598932 -4.454422316 -0.6249021084
H 3.9824389057 -4.8903362602 -2.2477102685
H 4.8239719514 -3.6248671879 -1.3387541527
H 1.928744288 -3.45419609 -2.3234868667
H 3.327685572 -2.6328965484 -3.0892436907
H 2.884168954 -0.2861989088 0.6758019189
H 1.3096059025 -0.7585967449 1.3597869306
H -1.4850566728 3.6799532501 0.7315031047
H 0.0050211048 3.5940662188 1.7179152386
H 1.289582645 4.7029894628 -0.0916487014
H -0.1557092467 4.7540100165 -1.1164466261
H -0.0846382521 5.7147470625 0.3699734546
H -3.9870672132 2.1771987302 -1.1516829197
H -4.0880109543 0.390945136 -1.2344528314
H -2.7078202057 1.2385744597 -1.9857900418
H -1.2377157732 -2.7777928444 0.1130693972
H -2.9581884157 -3.2020251216 0.3712171948
H -1.9726910782 -2.549977851 1.716104369
*
