! pbe def2-sv(p) def2/J RI DEFGRID1 loosescf d4 GCP(DFT/SV(P)) printgap
%output
    printlevel normal
end
* xyz 0 1
C 4.0262516237 -2.6153806186 0.7796225694
C 2.7922993884 -1.7574249941 0.9985613818
O 2.5884741873 -0.9131673375 -0.150967942
C 1.4937601018 -1.0236116329 -0.8617749212
O 0.5700462651 -1.7803773425 -0.6164616034
C 1.4734777626 -0.0681226525 -2.0353447335
C 0.2852038827 0.8904051158 -1.9001704106
H 0.2077155721 1.5048200535 -2.8015125486
C 0.417703584 1.8053145572 -0.694409551
O -0.4860370826 1.9723676095 0.1005010729
O 1.5931830592 2.36829854 -0.6368686681
C 1.9121254022 3.1983019592 0.5019603188
C 2.5052833484 2.3538721865 1.6173700645
S -1.3175970317 0.0284972233 -1.7961835036
P -1.5530598401 -0.3706359418 0.2737018608
S -0.3761599329 -0.3055591003 1.8416407752
O -2.8761372955 0.5475172646 0.4218789311
C -3.40757308 0.8919068395 1.7009425619
O -2.1485718206 -1.8605627595 0.279421248
C -3.0443851508 -2.3442346934 -0.729777918
H 4.885188085 -1.9833890921 0.5749869567
H 4.2143830337 -3.1986480573 1.6746829738
H 3.8743291271 -3.2904896488 -0.058461855
H 2.9172031219 -1.0831812343 1.8485762769
H 1.8946747272 -2.3616617468 1.1556830145
H 1.3459417989 -0.6497321695 -2.948827199
H 2.4040701808 0.497146459 -2.0634239033
H 2.6341322547 3.9173532016 0.1153261464
H 1.002209163 3.7035333791 0.8353721772
H 1.7714975022 1.631821527 1.9746517045
H 3.3787186674 1.8179648163 1.2562406798
H 2.7920478449 2.9975288596 2.4420093974
H -2.6654266172 1.4526991827 2.2706117874
H -3.688225385 -0.0053503079 2.2553948157
H -4.2789467694 1.5082646319 1.4952797475
H -2.4665251725 -2.6925966312 -1.5851338754
H -3.7346303797 -1.5581973769 -1.0399264467
H -3.5828893092 -3.1696645474 -0.2701131533
*
