  11
        -18.71001340
 C         -1.4340571028       -0.9939443822       -0.0000596389
 S         -0.0000308694        0.0907761948       -0.0000068595
 O         -0.0012065766        0.8787189469        1.2258874493
 O         -0.0005195837        0.8780305217       -1.2263433401
 C          1.4358968380       -0.9915758062        0.0005477514
 H         -1.3889707598       -1.5977155229       -0.8956264069
 H         -1.3918682246       -1.5935237935        0.8983080041
 H         -2.3181092387       -0.3695907443       -0.0028142430
 H          1.3916246498       -1.5958986355       -0.8948191242
 H          2.3190018043       -0.3658841364       -0.0027243455
 H          1.3947812592       -1.5910065664        0.8993144443
  11
        -18.70871026
 C         -1.4411375434       -0.9880393556        0.0000840380
 S         -0.0003382451        0.0885908902       -0.0001429434
 O         -0.0029186522        0.8777414285        1.2254191690
 O         -0.0022724165        0.8773555457       -1.2259176506
 C          1.4474639765       -0.9908913536        0.0007310618
 H         -2.3214418773       -0.3584023237       -0.0012973377
 H         -1.4001084438       -1.5895834808       -0.8974231216
 H         -1.4010320575       -1.5871625738        0.8992968620
 H          1.1043911559       -2.0157636186       -0.0313766621
 H          2.0347786543       -0.7510282690       -0.8753193552
 H          2.0011860844       -0.7944501819        0.9088667098
