! pbe def2-sv(p) def2/J RI DEFGRID1 loosescf d4 GCP(DFT/SV(P)) printgap
%output
    printlevel normal
end
* xyz 0 1
C 2.9188698976 -1.407922729 -3.1924395646
C 3.7468648587 -0.4845823869 -2.3223554437
O 3.3724715331 -0.5890835812 -0.9413580947
P 1.9567908236 -0.0788861062 -0.4057633277
S 1.4661514209 1.6286266764 -1.250741336
O 2.2072464733 -0.0813838388 1.156581912
C 2.8997992658 1.0105570008 1.8021171406
C 2.6408797581 0.9095688789 3.2900506859
S 0.7794372829 -1.8275817872 -0.560448565
C -0.1924948659 -1.9002862158 0.982290289
S -1.965082328 -1.6436393078 0.7308244356
P -1.8629731841 0.4532901547 0.4104606953
S -0.6805125201 1.4238350882 1.6261575783
O -3.3813310056 0.9219807102 0.4176475078
C -4.0867861928 1.2815621032 1.6205268154
C -4.2823439889 0.1024157676 2.5509183207
O -1.4841594429 0.6170619079 -1.1102080528
C -2.323112523 0.1057468954 -2.1819621869
C -1.4292448743 -0.4626326094 -3.2641277275
H 2.9943818082 -2.4324628097 -2.8377673232
H 1.8731623745 -1.1008062206 -3.1529461017
H 3.2659160465 -1.3502846837 -4.2188384822
H 3.620744547 0.5573491297 -2.6358856409
H 4.8040060843 -0.7524244699 -2.3327033232
H 3.9625528151 0.9181059205 1.5658806238
H 2.5193750161 1.9531725259 1.3933143666
H 1.5791667806 1.0370557908 3.4880471058
H 2.9613685964 -0.0607002269 3.6580675436
H 3.1937898086 1.6921001693 3.7988658733
H 0.1874965883 -1.1543536062 1.6793993886
H -0.0811508308 -2.9077508403 1.3736419125
H -3.5293907036 2.0796621555 2.1205197641
H -5.0382161105 1.6682917282 1.2525472287
H -4.7268471968 -0.7331714418 2.0162214116
H -3.3247135827 -0.2118558458 2.9623897906
H -4.9347857208 0.3978686618 3.366253462
H -2.9944716624 -0.655109244 -1.773707936
H -2.907877501 0.9517690841 -2.5464605318
H -0.9081767923 -1.3462976147 -2.902524612
H -2.0365304588 -0.7302607085 -4.1224945092
H -0.6949931009 0.2833090291 -3.5595431812
*
