  20
        -39.80300826
 C         -4.5181624213       -0.8009695562       -0.0007438806
 O         -3.0893071662       -0.8355883082       -0.0008127044
 C         -2.4551523866        0.3272470575        0.0002811696
 O         -3.0230442263        1.4010969921        0.0011053794
 C         -0.9735892069        0.1778049322        0.0002071684
 C         -0.1955114474        1.3355588914       -0.0005001104
 C          1.1811281318        1.2432104099       -0.0006662276
 C          1.7711751566       -0.0183427224       -0.0000075182
 C          1.0044544148       -1.1812308419        0.0007530224
 C         -0.3723164916       -1.0808376258        0.0008638640
 N          3.1987572635       -0.1223248271       -0.0000705303
 O          3.6971635296       -1.2340083352       -0.0002418958
 O          3.8532877665        0.9053020089       -0.0000380591
 H         -4.8786274312       -0.2579959326       -0.8751668695
 H         -4.8790365748       -0.3016122998        0.8991210148
 H         -4.8359596106       -1.8383308279       -0.0258526651
 H         -0.6911344725        2.2936994133       -0.0010433193
 H          1.8069075678        2.1217435864       -0.0013079920
 H          1.4997866670       -2.1395831196        0.0012969993
 H         -0.9864566693       -1.9660663362        0.0014968044
