! pbe def2-sv(p) def2/J RI DEFGRID1 loosescf d4 GCP(DFT/SV(P)) printgap
%output
    printlevel normal
end
* xyz 0 1
C 4.4440179934 1.3444609996 0.6575616132
C 3.3460907291 1.2968659302 -0.385175617
O 2.6788134934 0.0198374782 -0.3771905942
P 1.6223994436 -0.3678493013 0.7587405445
S 0.8155682316 1.1235529196 1.723041795
O 2.3546252738 -1.3129283919 1.7995613014
C 3.1861495346 -2.4332777101 1.4062968759
C 4.3422021388 -2.5275163884 2.3814684295
S 0.4703582818 -1.7672239206 -0.3566667993
C 0.2930910396 -0.8557021963 -1.9174527856
S -0.2670051844 0.8516041187 -1.705739285
P -2.2257045363 0.3879617892 -1.095974294
S -3.1389494957 -1.0727716408 -2.0159294093
O -3.0243912865 1.7440769686 -1.2832748199
C -2.5081824025 3.0754692745 -1.0455598637
C -2.2394783397 3.3439744503 0.4204992844
O -2.0101360422 0.1434827571 0.4674686605
C -2.9280384399 -0.5967115389 1.2949739212
C -2.1367760492 -1.4511274423 2.2650672783
H 5.1666164598 0.5510209281 0.4844362337
H 4.9469178501 2.3049534235 0.6079368519
H 4.0105652209 1.2232476027 1.6501218524
H 3.7395303882 1.3879395239 -1.3983408239
H 2.6039724007 2.0801975592 -0.2031835353
H 2.5605126417 -3.3277585884 1.4402037538
H 3.5370505839 -2.2750861669 0.3836167981
H 3.9640827608 -2.6364497526 3.3938409482
H 4.9504647865 -3.3903912635 2.1298972136
H 4.9530751841 -1.6301687301 2.3332620517
H -0.4412910755 -1.4083475765 -2.5055339819
H 1.2538869349 -0.8077558439 -2.4232401868
H -1.599237046 3.2037422572 -1.6395291601
H -3.2977713568 3.7209055766 -1.4342950016
H -1.9460849241 4.3820340103 0.5413037517
H -3.134366711 3.1564452656 1.0085913912
H -1.4356032817 2.7102510142 0.7917646381
H -3.5426456633 0.1347914965 1.8250563558
H -3.5668677175 -1.2120501496 0.6517454434
H -1.5832742235 -2.2190501871 1.7297129458
H -1.4330358462 -0.8288020811 2.8132695179
H -2.8204548838 -1.922690412 2.9631671562
*
