! pbe def2-sv(p) def2/J RI DEFGRID1 loosescf d4 GCP(DFT/SV(P)) printgap
%output
    printlevel normal
end
* xyz 0 1
C 2.0422605567 2.735415065 0.0385937339
C 2.9786171911 2.083720276 1.0348627869
O 3.2329339546 0.7064089843 0.7087050342
P 2.0889288252 -0.3952182646 0.7265765423
S 0.8094560542 -0.2519255422 2.210951289
O 2.9073687548 -1.7540306391 0.6917611681
C 3.3460605606 -2.4223367606 1.8921678365
C 4.423634701 -1.6405497169 2.6134524553
S 1.3719538095 -0.4297817555 -1.2521038968
C 0.1157591685 -1.7293870054 -0.9993739544
S -1.4029029656 -1.4491225472 -1.9502406563
P -2.3187823093 0.069962209 -0.8004733683
S -4.1445631836 0.5543143717 -1.3118168207
O -1.294506729 1.2956585533 -0.7611631529
C -1.380107152 2.359249478 -1.725581299
C -0.9227290585 1.9140810984 -3.0999876302
O -2.1343677415 -0.5680751454 0.6393053762
C -2.9694945322 -0.1855237654 1.7509828704
C -2.7027827761 1.2357596378 2.1966166877
H 1.0610704177 2.2646983686 0.0993907957
H 1.9448845757 3.7913597494 0.2704677244
H 2.425443267 2.6185238604 -0.9722870761
H 2.5563648167 2.128501247 2.0441712919
H 3.9677513171 2.5434292016 1.0244496142
H 2.4779212901 -2.5724920143 2.5425567365
H 3.7138048641 -3.3850420534 1.5349647285
H 4.0106607984 -0.7107615872 3.0024051691
H 4.8033843515 -2.2308656799 3.441560619
H 5.236723302 -1.4058998603 1.9316544541
H -0.1307792348 -1.7780286328 0.0612638178
H 0.5111325553 -2.6745453131 -1.362715573
H -2.4178158154 2.7073297798 -1.7608439759
H -0.7388131889 3.143083729 -1.3208385402
H 0.0747182396 1.4837269331 -3.0476572684
H -1.6081465254 1.1636277592 -3.4934887465
H -0.9144681489 2.7685385782 -3.7687076179
H -4.0152213852 -0.3108786656 1.4529327524
H -2.7102886723 -0.9049444415 2.529088737
H -3.2910638833 1.4498285626 3.0831262668
H -1.6469357117 1.3592893605 2.4257788355
H -2.9826172493 1.930739896 1.4061415976
*
