! pbe def2-sv(p) def2/J RI DEFGRID1 loosescf d4 GCP(DFT/SV(P)) printgap
%output
    printlevel normal
end
* xyz 0 1
C 3.8980576549 -1.3703623058 -2.5214582387
C 4.2040054815 -1.5947883812 -1.055106378
O 3.006903112 -1.6469272203 -0.2591459733
P 2.1246831333 -0.354861911 0.0257658514
S 3.1566929482 1.2999344821 0.273457721
O 1.2002567357 -0.8628082677 1.2070067097
C 1.6646958827 -1.4875615735 2.4216358318
C 2.5295948734 -0.5645950832 3.2548793013
S 0.6890745318 -0.2916668375 -1.5244821015
C 0.161829494 1.4191497849 -1.261185074
S -0.6052268133 1.6857497518 0.3631933186
P -2.249260055 0.4014627948 0.072875659
S -3.0099125649 0.273433461 -1.7328716471
O -3.3054368316 0.8327677232 1.1840941583
C -4.3268713164 1.815225989 0.9375350395
C -3.7511321568 3.2074111662 0.777408325
O -1.6788433769 -0.9293842636 0.7140033003
C -2.3003600336 -2.2173779773 0.4987456103
C -1.532023825 -3.0058347094 -0.5434317311
H 3.4822263364 -0.3742731901 -2.6662334086
H 4.8139345493 -1.4567167798 -3.0971349264
H 3.1773314611 -2.1035307433 -2.8744615948
H 4.8415300666 -0.7932876937 -0.6682249922
H 4.6760280651 -2.5631778498 -0.8840659875
H 0.738904206 -1.7418182186 2.9413951287
H 2.2056675514 -2.3986404263 2.1550235631
H 2.7675762121 -1.0475817987 4.1974889648
H 3.4552002879 -0.3355482733 2.7289135885
H 2.005438656 0.3683998414 3.4499521449
H -0.5553832514 1.6443406444 -2.0495891163
H 1.0251439201 2.0828689214 -1.3027592913
H -4.8776368875 1.5212232333 0.038157327
H -4.9752877432 1.7439173035 1.8117521101
H -3.1148064903 3.4533055816 1.6239001409
H -3.1567049569 3.2619453458 -0.1337193661
H -4.5615080366 3.9263670324 0.712966077
H -2.2734403525 -2.7073446983 1.4734496944
H -3.3394913252 -2.0707352075 0.1903510264
H -1.5973260825 -2.512808257 -1.5112920905
H -0.484420426 -3.0744091046 -0.2610406204
H -1.9525889953 -4.0031954211 -0.621395141
*
