! pbe def2-sv(p) def2/J RI DEFGRID1 loosescf d4 GCP(DFT/SV(P)) printgap
%output
    printlevel normal
end
* xyz 0 1
C 3.4451528601 -1.4838963425 1.8381481082
C 2.7764350121 -2.2702667929 0.7226971576
O 2.628487244 -1.4591721467 -0.4626092206
C 1.624060314 -0.6344558632 -0.5467841568
O 0.7812293235 -0.4741377933 0.3303281459
C 1.5704954698 0.1415665066 -1.834869665
C 0.4162382891 1.1271789811 -1.734308167
H 0.3877140946 1.7910980804 -2.6018942523
C 0.4922305147 1.9744900506 -0.4718190383
O -0.4722057265 2.3560373764 0.1476838074
O 1.7443645573 2.2577742662 -0.1675028405
C 1.9942679022 3.1183431069 0.9627208151
C 1.938250215 4.5806620652 0.5528720055
S -1.222243622 0.3077687495 -1.8042349527
P -1.6025000418 -0.7870068876 -0.0361787498
S -1.0530966338 -2.6598583636 0.2591274315
O -1.7172375897 0.0858067224 1.2972489757
C -0.9064371041 -0.0398445585 2.4585031944
O -3.152076868 -0.7539653958 -0.4807381422
C -4.1518188645 -1.5178587369 0.1934874349
H 4.4038808983 -1.0992780734 1.5017734981
H 2.8129443692 -0.6526640531 2.1430238455
H 3.5990037146 -2.1368269073 2.6906454012
H 1.7894451793 -2.6306572329 1.0264322435
H 3.3943772979 -3.1058545378 0.3958246192
H 1.4180584602 -0.5458015805 -2.6682701944
H 2.519051639 0.6605033221 -1.9798407147
H 1.2531104772 2.9039656472 1.7381599637
H 2.9916573728 2.8369555108 1.3013663657
H 0.9346313125 4.8381787903 0.2221104555
H 2.1976385777 5.2002628091 1.4048806266
H 2.63880831 4.769576789 -0.2554661075
H -1.5509736882 0.2074618323 3.2992639572
H -0.0730515184 0.6580548742 2.3969252563
H -0.5296604445 -1.0605993811 2.5465370426
H -3.7805029011 -2.5245587303 0.4015111316
H -4.9999456395 -1.5605799765 -0.485439787
H -4.4304063228 -1.0263695146 1.1254993045
*
