! pbe def2-sv(p) def2/J RI DEFGRID1 loosescf d4 GCP(DFT/SV(P)) printgap
%output
    printlevel normal
end
* xyz 0 1
C 4.9024347938 1.2038205363 -1.0389636882
C 4.4260466367 -0.2134499078 -1.2770589199
O 3.5834145703 -0.7049524951 -0.2180421712
P 2.2753699586 0.0128719157 0.3303061327
S 2.4951258054 1.5202111124 1.554563525
O 1.5592363303 -1.1777564569 1.0749548672
C 1.3626825105 -2.5075676703 0.5270299129
C 1.3879148894 -3.4913002797 1.6781155658
S 1.1792534079 0.4131758452 -1.459435058
C 0.0560567844 1.641869871 -0.7400419453
S -0.904669102 1.0303069496 0.6688649418
P -2.345424466 -0.1025308053 -0.4345582243
S -1.7016804109 -1.6173117456 -1.4897501115
O -3.1087772429 0.9416824962 -1.3377154759
C -3.9958796342 1.9799932306 -0.8424205612
C -3.2932735016 3.3218155047 -0.7800424645
O -3.4237904362 -0.4710095233 0.6742222669
C -3.3188899017 -1.6622621765 1.4737445503
C -2.2587874014 -1.5299851947 2.5483546186
H 5.394680033 1.2810200785 -0.0724966923
H 5.5983439644 1.4856504435 -1.8225439824
H 4.0574534269 1.890665284 -1.0490752288
H 5.2592581938 -0.9185157851 -1.2880572393
H 3.8687676155 -0.2826426536 -2.2157248657
H 0.3990988518 -2.5148345062 0.0086728907
H 2.1561079302 -2.7173567598 -0.1920511289
H 2.3600771394 -3.4735539955 2.1632112774
H 0.6278490724 -3.2319799045 2.4096424302
H 1.1923048235 -4.4872627467 1.2941559117
H -0.6099301094 1.9545271784 -1.5416795235
H 0.6428865324 2.4758394656 -0.3559544485
H -4.8106583304 1.9955908938 -1.5681936221
H -4.377922313 1.683368461 0.134975886
H -4.0209496504 4.0840592476 -0.5191849329
H -2.5086907843 3.3150850003 -0.027196003
H -2.8595814382 3.5652594683 -1.7465196683
H -4.3140413536 -1.7776470706 1.9055337385
H -3.1000644929 -2.5061626484 0.8112407809
H -1.2711165738 -1.4406725456 2.097864141
H -2.4407414433 -0.6459359532 3.1542863865
H -2.2799002733 -2.4109469881 3.1820690959
*
