! pbe def2-sv(p) def2/J RI DEFGRID1 loosescf d4 GCP(DFT/SV(P)) printgap
%output
    printlevel normal
end
* xyz 0 1
C 5.2472432968 -0.3634768349 -1.5771946777
C 4.5084944517 -0.7322665883 -0.3058319245
O 3.5632400232 0.2855019163 0.077220925
P 2.0759210762 0.3835701959 -0.4853837101
S 1.8602528891 0.6752070025 -2.4065037722
O 1.5284603865 1.5774609348 0.3808768834
C 1.7157457213 1.6486638694 1.8179961225
C 0.782873156 2.7142188862 2.3519637064
S 1.2448744598 -1.4336822788 0.2551504886
C 0.0528494828 -1.8230783934 -1.0642113011
S -1.6361262881 -2.0164925283 -0.4576738873
P -1.9526459716 -0.0081868999 0.1764878224
S -1.4038626647 1.405676461 -1.0610470985
O -1.2143948324 0.09849722 1.5670475054
C -1.4926684414 -0.7859464384 2.6847367954
C -2.4032861858 -0.1060147997 3.6853494355
O -3.484037998 0.0026639023 0.6006089666
C -4.5464365801 0.2813620258 -0.3280930603
C -4.6759683979 -0.7866939355 -1.394316995
H 4.554610065 -0.2983001541 -2.4133882254
H 5.7383536168 0.5986534349 -1.4593546093
H 5.9917832865 -1.1236749866 -1.7901642686
H 5.190240253 -0.7912113971 0.5449218058
H 3.981208325 -1.6835426987 -0.4183085557
H 1.4904528021 0.6661729032 2.2431948431
H 2.7625056485 1.8945599766 2.0059201577
H -0.2467629375 2.4535462134 2.1197426048
H 0.9062317339 2.7910743947 3.4273914832
H 1.0084286327 3.6712342028 1.8899876902
H 0.3284806714 -2.781209039 -1.4974754543
H 0.0982620282 -1.0255712075 -1.8121641489
H -1.9392390089 -1.7084513061 2.3043678754
H -0.5137350368 -1.0054215668 3.1158321579
H -3.3659642527 0.1103131865 3.2301035543
H -2.5486033233 -0.7660660774 4.5346903121
H -1.9586961143 0.8248138993 4.0264311727
H -5.4355023298 0.3303713225 0.3022759807
H -4.3572884259 1.2583081928 -0.7833761257
H -4.737490598 -1.7721241737 -0.939311837
H -5.5714847148 -0.6017204597 -1.9788740079
H -3.8124518397 -0.7580803681 -2.0573401687
*
