! pbe def2-sv(p) def2/J RI DEFGRID1 loosescf d4 GCP(DFT/SV(P)) printgap
%output
    printlevel normal
end
* xyz 0 1
C 4.2765249206 0.0464660136 -2.1981106654
C 2.8744976772 -0.5067693806 -2.0534590592
O 2.0972117715 0.3013633793 -1.1339248281
P 1.9153047587 -0.0154635042 0.3938601272
S 0.8547563774 1.3484690282 1.3106442188
O 3.4069342985 -0.1458069332 0.9251881334
C 3.6837004388 -0.3586159251 2.3251288972
C 5.1351961203 -0.0026259022 2.5736968333
S 1.2693059398 -2.0375544751 0.5361770314
C -0.3542360078 -1.9430383099 -0.267586438
S -1.6241317976 -1.0927361493 0.7141186026
P -2.0632136544 0.5590154 -0.5640148751
S -0.9438519548 0.6988132863 -2.164287465
O -2.0463234132 1.8742231573 0.2972447996
C -3.0379708541 2.2645905348 1.2769949173
C -3.1052541153 1.3033312762 2.4439093798
O -3.6244863882 0.4215527204 -0.8683442609
C -4.1549474315 -0.3521031908 -1.9574538736
C -3.9107858935 -1.8383792072 -1.7923076235
H 4.8018153464 -0.0083973705 -1.2483399536
H 4.81151174 -0.5366859351 -2.9410644952
H 4.2354795373 1.0844632305 -2.5170653548
H 2.8921051277 -1.5386879425 -1.6915293658
H 2.3188402994 -0.4484130774 -2.9919813342
H 3.0079394562 0.2723677944 2.9119333761
H 3.4834749055 -1.4086826592 2.553495775
H 5.3643961248 -0.1610576999 3.6222446507
H 5.7817616868 -0.6286452246 1.9656974285
H 5.3123575869 1.0392652475 2.3215493956
H -0.6650780069 -2.9766796067 -0.3956597652
H -0.2563864494 -1.4262591183 -1.2272541448
H -2.6938071384 3.2512243816 1.5912134615
H -4.0030207112 2.3441619053 0.7720857369
H -2.1136366273 1.1683201553 2.8708918499
H -3.7695870627 1.7082345745 3.2007942106
H -3.4840627616 0.335486413 2.1183169499
H -5.2201102747 -0.1161498569 -1.9436053208
H -3.705414756 0.01043295 -2.887164222
H -4.4630663394 -2.3755118828 -2.556695801
H -2.8502706279 -2.0554585436 -1.9071498292
H -4.2374056354 -2.170155055 -0.8101566284
*
