! r2scan-3c def2/J RI DEFGRID2 scfconv6 printgap
%output
    printlevel normal
end
* xyz 0 1
C 4.6796604101 -1.3882978738 -0.9340943017
C 4.6326748453 0.0777310512 -0.5550675963
O 3.4820810221 0.3916160601 0.2484334984
P 1.9991303345 0.3769953557 -0.3330716788
S 1.8780874182 1.0619452479 -2.1719337619
O 1.2425857362 1.1731906508 0.8084871788
C 1.353484458 2.6091261862 0.907335448
C 0.5175834476 3.0544003413 2.0878403561
S 1.3169208565 -1.5674887753 0.0330428374
C 0.00539468 -1.705524021 -1.2317946102
S -1.6339733491 -1.9754497224 -0.5263802766
P -1.9866106602 -0.0176110345 0.2269843163
S -1.4647919789 1.4707120636 -0.9308216076
O -1.3029279561 0.0281559969 1.6461909816
C -1.6551835421 -0.9000984153 2.7087439295
C -0.3900643346 -1.4924649738 3.2941574443
O -3.5281178907 -0.0554822998 0.6225124612
C -4.5841747594 0.2616860309 -0.3013140647
C -4.6987691952 -0.7526501578 -1.4204796659
H 3.8676787725 -1.6194739616 -1.6219420134
H 5.6252711398 -1.6013756652 -1.4220085444
H 4.5793656672 -2.0109948961 -0.0487601384
H 4.6088236854 0.7064841462 -1.4510326992
H 5.4763359771 0.3595142367 0.0763369731
H 2.4081027464 2.867528136 1.0360248411
H 0.9875487334 3.0447564592 -0.029176227
H 0.8896732259 2.5987522644 3.0006461232
H 0.565752947 4.1351066212 2.1719842118
H -0.5154128091 2.750159531 1.937145288
H 0.217837682 -2.582103753 -1.8380628637
H 0.0090521281 -0.7955151995 -1.8380979751
H -2.2031562266 -0.3140319033 3.4482426342
H -2.3085545704 -1.6765468525 2.3028847897
H -0.6479412583 -2.0836734829 4.1669904088
H 0.1095189797 -2.1273830989 2.5665466911
H 0.2911916688 -0.6975916154 3.5852874537
H -5.4774157704 0.2736131957 0.3248850374
H -4.399069404 1.2617178725 -0.7053808481
H -4.7529636408 -1.7599750022 -1.0156236576
H -5.5942588167 -0.5462985132 -1.9978020232
H -3.8336874858 -0.6836447337 -2.0779618136
*
