! pbe def2-sv(p) def2/J RI DEFGRID1 loosescf d4 GCP(DFT/SV(P)) printgap
%output
    printlevel normal
end
* xyz 0 1
C 3.5033440189 -2.1062312207 -2.1504453332
C 4.0241360426 -0.7286706265 -1.7937769177
O 3.6069875867 -0.3189420425 -0.482280914
P 2.0917508262 0.043091299 -0.1264680775
S 1.1846894301 0.9586959613 -1.6123311733
O 2.3000368508 0.7389538889 1.2745191476
C 3.1870099958 1.8481904687 1.5228125106
C 2.6753205298 3.1322747093 0.9015831551
S 1.1983534891 -1.7368046975 0.5602288976
C -0.1717295503 -1.8939540104 -0.636623762
S -1.8162044552 -1.8634134103 0.1169920652
P -2.0606436829 0.2329510773 0.4231294418
S -0.7877304378 1.1778406462 1.5716856325
O -3.5928685251 0.317673002 0.8396882854
C -4.2305872154 -0.4883074237 1.8484156964
C -3.4940352862 -0.4680617497 3.1710055281
O -2.07740405 0.8993301427 -1.001708781
C -2.9664108911 0.4912609365 -2.0743385621
C -2.3822978678 1.0053688874 -3.3737429454
H 3.7480080968 -2.8168746832 -1.3651273753
H 2.4216031156 -2.0715363882 -2.2713928633
H 3.9524119844 -2.4291056403 -3.0840675395
H 3.6726401012 0.0149719182 -2.5164721041
H 5.1134817499 -0.7104916627 -1.7398135955
H 3.2034328709 1.9158527424 2.6119987265
H 4.1813417991 1.5924559886 1.147743449
H 3.2951069795 3.9632662676 1.2224051675
H 2.7000419791 3.0675807077 -0.1852646607
H 1.646907509 3.3061344554 1.2131169143
H -0.0926209428 -2.8695083124 -1.1089566941
H -0.0863732553 -1.0811689783 -1.3651861211
H -5.2245211577 -0.0463262888 1.9380538937
H -4.3090430152 -1.5093363222 1.4650348462
H -2.5073780156 -0.916517221 3.0583922939
H -3.3660348527 0.5544451089 3.5191314093
H -4.0571723608 -1.0326421789 3.9070272017
H -3.0438653318 -0.6000512341 -2.0703780571
H -3.9479026731 0.9240455506 -1.8728230007
H -1.3717597084 0.6268750658 -3.5075948997
H -3.0049495704 0.6797356071 -4.2003867895
H -2.336179808 2.0903938518 -3.3584601711
*
