! pbe def2-sv(p) def2/J RI DEFGRID1 loosescf d4 GCP(DFT/SV(P)) printgap
%output
    printlevel normal
end
* xyz 0 1
C 3.0049729938 2.5517610573 1.7296964146
C 1.8586575696 2.0907259587 0.8527586054
O 1.2720367536 0.8773223827 1.3764930714
P 1.5926741076 -0.5568720557 0.8100293621
S 0.7523407378 -1.9612596882 1.8805398159
O 3.1879853246 -0.514002882 0.8048306833
C 4.0384728123 -1.5127184762 0.213703796
C 4.1730786762 -2.7429182559 1.0895204689
S 1.1926672556 -0.6138973453 -1.2843297184
C -0.2455385599 -1.7101637477 -1.3091088928
S -1.795282869 -0.9372529495 -1.8734601637
P -1.9537378859 0.699485138 -0.5360129111
S -3.6979530701 1.5831909401 -0.4830634174
O -0.7320925738 1.6663208368 -0.86063228
C -0.8292998072 2.6888210421 -1.8706665929
C -0.7857337212 2.1140734902 -3.2730331864
O -1.3891894066 0.1416777878 0.8438259932
C -2.2907587951 -0.2662366189 1.8896540715
C -2.9612085247 -1.5888071242 1.5773884596
H 3.3858793953 3.4945906648 1.3496877757
H 2.6589745943 2.6894842348 2.7505276274
H 3.8019701036 1.8131219685 1.7272485753
H 2.1886271049 1.912377708 -0.1743776225
H 1.0397126574 2.8128854638 0.8545202789
H 3.6459937743 -1.7737137936 -0.7731089779
H 4.997956605 -1.0039214077 0.1012765492
H 4.5164476447 -2.4619365738 2.0817643878
H 3.2162202438 -3.2507740399 1.1871901443
H 4.8907383833 -3.422344726 0.6411213778
H -0.3734228338 -2.1261691525 -0.3061081735
H -0.0548306506 -2.4946863329 -2.0374900269
H -1.7565089047 3.2481971008 -1.7076115654
H 0.0300495786 3.3327050312 -1.6767084566
H 0.0817892949 1.4682900421 -3.389332096
H -1.686488056 1.5347333501 -3.4712136786
H -0.7268631474 2.9279687496 -3.9885220607
H -1.6549977173 -0.3396112463 2.7734997731
H -3.036158191 0.5228166149 2.0287234351
H -2.2163034263 -2.3730316156 1.4629205688
H -3.6254001663 -1.850857291 2.3945738378
H -3.5440910809 -1.5036666641 0.6602495072
*
