! r2scan-3c def2/J RI DEFGRID2 scfconv6 printgap
%output
    printlevel normal
end
* xyz 0 1
C -1.677748464 1.1770209538 -0.0001033602
C -2.3076781229 -0.0600013822 3.66333e-05
C -1.5194861075 -1.1984371433 -4.6044e-05
N -0.1935499932 -1.1626340658 -7.5934e-06
C 0.3837032106 0.0186138983 -8.99643e-05
C -0.2934331143 1.2294122837 -0.0001087864
Cl 2.1194116783 0.0094841156 2.61156e-05
H -2.2527054777 2.0896377623 0.0003779978
H -3.3817739687 -0.1391170522 0.0006535063
H -1.9481113413 -2.1899124095 0.0005593845
H 0.2463159273 2.1607374022 0.0013081792
*
