! pbe def2-sv(p) def2/J RI DEFGRID1 loosescf d4 GCP(DFT/SV(P)) printgap
%output
    printlevel normal
end
* xyz 0 1
C 0.7541929444 -1.9684642051 2.8504567424
C 1.8482027188 -1.0418745165 2.3614218021
O 2.1598322687 -1.4030078123 0.9899285096
P 2.6918430431 -0.365435248 -0.0689495766
S 3.1283822482 -1.2268493924 -1.7694588283
O 3.8963223904 0.3171985923 0.7123119424
C 4.9339331513 1.0663864992 0.0536052652
C 4.4079461354 2.3238458812 -0.6071765169
S 1.2059979602 1.1651908843 -0.1598368746
C 0.1243260952 0.3058836123 -1.3248946669
S -0.9399531335 -0.9176050793 -0.5257649001
P -2.7034033845 0.2901805654 -0.3004399636
S -2.8093513771 1.8659456615 -1.4540818559
O -2.8510362918 0.4958034002 1.2731647267
C -1.8552907061 1.0707662231 2.1369067631
C -1.6110964577 2.5394144988 1.8568413292
O -3.8995946782 -0.6860477272 -0.5887490611
C -4.0778045058 -1.9423292731 0.1179853935
C -5.0231678108 -2.7985090406 -0.697808571
H 0.4992354815 -1.7122718041 3.8736252809
H -0.1274791336 -1.8760395361 2.2208111055
H 1.0957805016 -2.998479597 2.8098700646
H 2.7639332936 -1.1559208838 2.9438511672
H 1.536726295 0.0070330095 2.3856308935
H 5.6349022504 1.2963810884 0.8572778934
H 5.412898028 0.4156182686 -0.6841799305
H 3.8327260416 2.914012182 0.1018954413
H 5.2435783238 2.9123496742 -0.9721941543
H 3.7684818614 2.0639274367 -1.449674015
H 0.7432638923 -0.2223077725 -2.0517392131
H -0.5041618782 1.0582386501 -1.8076958888
H -2.2671664639 0.9192561578 3.1361566273
H -0.929228976 0.4990793039 2.0281583311
H -1.1457940983 2.6709366543 0.8811987554
H -2.5500417386 3.0868227208 1.8685008653
H -0.9491732492 2.9434533288 2.6158382581
H -3.1002335988 -2.420543826 0.2285119013
H -4.4870039813 -1.7150586908 1.1038524119
H -5.1938220038 -3.7359525046 -0.17846564
H -5.9694866054 -2.2824830835 -0.831998317
H -4.595430797 -3.001970971 -1.6755676747
*
