! pbe def2-sv(p) def2/J RI DEFGRID1 loosescf d4 GCP(DFT/SV(P)) printgap
%output
    printlevel normal
end
* xyz 0 1
C 4.1937687031 -3.7178664953 -1.0662802185
C 3.1476526131 -2.9418527881 -1.8506344415
O 2.8455630707 -1.6876165765 -1.2094462917
C 1.9411012837 -1.6723559841 -0.2535051769
O 1.3290457083 -2.6410636001 0.1375584278
C 1.7158808852 -0.2638257678 0.2669933141
C 0.8969992087 0.515456456 -0.7681920417
H 1.4998728571 0.6949885772 -1.661687848
C 0.4082138106 1.8353343147 -0.2032643666
O -0.7740821003 2.1053254448 -0.1043166031
O 1.3829084077 2.6116130704 0.1630917508
C 1.0461566318 3.8795798017 0.7736240645
C 2.3372372379 4.540815661 1.2102693198
S -0.5627567893 -0.4116668763 -1.3601091118
P -1.9258353557 -0.1466245947 0.2467429369
S -1.3353440102 0.1921558715 2.0948315909
O -3.1615060781 0.6803252118 -0.3010858272
C -3.5634666172 1.9742577552 0.1546831899
O -2.6795648829 -1.5586383798 0.133795847
C -2.0645109602 -2.7559900033 0.6150018091
H 4.4475821748 -4.6238868267 -1.6064467582
H 5.0883016526 -3.1151539364 -0.9364757623
H 3.8028864482 -3.9887631299 -0.0881072391
H 2.222629187 -3.5181966874 -1.940401498
H 3.5170225379 -2.6597606977 -2.8364588253
H 2.6719049391 0.2387328915 0.4092015687
H 1.1769099214 -0.3259197934 1.2143559635
H 0.5087174302 4.4809682124 0.0350014353
H 0.3776096899 3.6833817681 1.6172167471
H 2.9908194249 4.6829927155 0.3552397595
H 2.1109076743 5.5050730391 1.6526470837
H 2.8449507673 3.9227964636 1.9442035619
H -3.1768197927 2.7300103153 -0.5262554346
H -3.1839473386 2.1584910209 1.1609864171
H -4.6512193687 1.9668433122 0.1534396292
H -1.9446581576 -2.7004131466 1.6982701282
H -1.0856816752 -2.9099514283 0.1562228166
H -2.7419770527 -3.5615951301 0.345952346
*
