! pbe def2-sv(p) def2/J RI DEFGRID1 loosescf d4 GCP(DFT/SV(P)) printgap
%output
    printlevel normal
end
* xyz 0 1
C 0.6448299112 1.461484485 -0.0938904067
C 1.5115282773 0.195886367 0.0865330585
H 2.4395307329 0.2875812225 -0.4886247816
C 0.7391806958 -1.034966755 -0.4525992895
H 1.2035624593 -1.9504922507 -0.0685749143
C -0.7122985016 -0.9770009714 0.0552504473
H -1.2723155587 -1.8405177036 -0.3174900596
C -1.3955195871 0.3275963364 -0.4702298666
H -2.0369236857 0.114797561 -1.3347442149
O -0.4348824458 1.2284264384 -0.9842904002
O -2.1662335042 0.9148161188 0.5209049253
O -0.7738314295 -1.0302273842 1.4585784139
O 0.8199619133 -1.1315807648 -1.8494599024
O 1.7835339554 0.0601106674 1.4675499551
H 1.2126437754 2.2791145757 -0.5349645367
H 0.2679730667 1.7781026455 0.8853540085
H -1.99803959 0.4251216387 1.3550297618
H 0.0259015297 -0.6068454191 1.8305917171
H 0.4588802336 -0.3217401793 -2.2430878061
H 2.5576488553 -0.5028468883 1.6077471432
*
