! pbe def2-sv(p) def2/J RI DEFGRID1 loosescf d4 GCP(DFT/SV(P)) printgap
%output
    printlevel normal
end
* xyz 0 1
C 2.9159061213 -4.0458796964 -0.1669122775
C 2.7439104255 -2.6071746517 0.2761254889
O 2.2836592052 -1.8467772938 -0.8583542227
C 2.1209494128 -0.5538883346 -0.7176660257
O 2.323980943 0.064044381 0.3101644436
C 1.6592202934 0.1173412521 -1.9970427824
C 0.4187084872 0.972425946 -1.7221479443
H 0.261844019 1.6762301434 -2.5424822656
C 0.5605888604 1.7388189037 -0.421209464
O -0.1774857174 1.5298171368 0.5287876599
O 1.4886229729 2.6432801209 -0.472042518
C 1.7764237424 3.4053459472 0.7220732983
C 0.7696941169 4.525927973 0.919383382
S -1.1041735929 -0.0298220795 -1.6395871675
P -1.4956705983 -0.4171627967 0.4072343291
S -0.324592717 -1.1382212455 1.8025408314
O -2.5517018385 0.6252311854 1.012419751
C -3.6046400435 1.1854564781 0.2116423802
O -2.4732823696 -1.6141964693 -0.1302437161
C -3.1573314952 -2.4749313706 0.776478305
H 1.9661878444 -4.4408412147 -0.5146736354
H 3.6404735237 -4.1036347823 -0.9736287766
H 3.262443528 -4.6375894563 0.6734843738
H 3.6839054991 -2.1672582972 0.6233864266
H 2.0035306108 -2.5083431608 1.0775510358
H 1.4416027706 -0.6340898939 -2.7540607857
H 2.4673970787 0.768807632 -2.3360583142
H 1.7784585226 2.7168089025 1.5716020523
H 2.7797415079 3.7923600036 0.5465068392
H 1.0694288236 5.1240763044 1.7734079271
H 0.7320044245 5.1562844503 0.0353058923
H -0.2190844862 4.1151498248 1.1109583689
H -3.2352610356 2.0724843356 -0.3022299184
H -4.3934354317 1.4520279021 0.9112748272
H -3.9630141618 0.457236964 -0.5176157501
H -3.9371780128 -1.9289304738 1.3094850156
H -2.4523885274 -2.8933303898 1.4980516683
H -3.5894658924 -3.2625941616 0.1643128007
*
