! pbe def2-sv(p) def2/J RI DEFGRID1 loosescf d4 GCP(DFT/SV(P)) printgap
%output
    printlevel normal
end
* xyz 0 1
C 4.2492685137 0.2499282572 -2.2366674447
C 4.5750553373 -0.5113458373 -0.9684439994
O 3.722824304 -0.1550752789 0.134849976
P 2.1341522593 -0.1220285022 0.1061828906
S 1.2903047344 1.4652662618 -0.7014584907
O 1.7959098943 -0.29734344 1.6464942265
C 1.6561660645 0.8301713902 2.5310901539
C 2.9801633313 1.5270882104 2.7617560141
S 1.6299801841 -2.0163891942 -0.656147487
C -0.0972871883 -1.7129230218 -1.1021107344
S -1.1516082519 -1.4015295933 0.3448170517
P -2.1240750933 0.4046257222 -0.2546638136
S -1.8872854679 0.9206474049 -2.1291256246
O -1.6691359027 1.5029620865 0.7866666448
C -2.2460614235 1.6893565761 2.1040529129
C -2.1656185381 0.4463363097 2.9654991591
O -3.6453506129 0.1870415997 0.1639769951
C -4.612015068 -0.3983941759 -0.7246962236
C -4.3032511234 -1.8467785957 -1.0439461158
H 4.9703886912 -0.0042287377 -3.006774172
H 3.2507970885 -0.0110486056 -2.5864671493
H 4.2778237797 1.3220926018 -2.0557989479
H 5.5765512326 -0.2718550129 -0.6064094763
H 4.4864197795 -1.5891031566 -1.1305642685
H 0.9270353296 1.5232887148 2.096908022
H 1.2637707867 0.3953312508 3.4516502865
H 3.3326423224 1.9606299153 1.8264389931
H 2.8504971342 2.3178039424 3.4941525596
H 3.7201064184 0.8158885302 3.1186225046
H -0.4337731097 -2.6220555405 -1.5943463517
H -0.1693580974 -0.8508028181 -1.7724954723
H -1.6553040218 2.5085288679 2.5180244669
H -3.2825240665 2.0077845039 1.9766533337
H -1.1411993218 0.0891877583 3.0302358581
H -2.525840851 0.6846212001 3.9614098506
H -2.7820989858 -0.3451410944 2.5439490848
H -5.554091561 -0.2960199087 -0.1841726113
H -4.6405713977 0.1969421371 -1.642472295
H -4.1556759133 -2.416393519 -0.1300224391
H -5.1288862808 -2.2717427488 -1.6055413974
H -3.3998346699 -1.9053993275 -1.6493340468
*
