! pbe def2-sv(p) def2/J RI DEFGRID1 loosescf d4 GCP(DFT/SV(P)) printgap
%output
    printlevel normal
end
* xyz 0 1
C 4.3356018065 -1.3937484204 1.1282648595
C 4.3678804074 -1.2258282899 -0.3763427458
O 3.0519671472 -1.0263688994 -0.9538367545
P 2.1106434227 0.2171715698 -0.709795491
S 1.0155881531 0.597531608 -2.2912489089
O 3.1279218301 1.367161105 -0.3074824559
C 2.7781341389 2.7611519751 -0.3407747975
C 1.8603122471 3.1401631992 0.8032247129
S 1.1036236918 -0.2276566505 1.1210844391
C 0.430782491 -1.8432520389 0.6696739111
S -0.8708711412 -1.8008726628 -0.6098916249
P -2.1165359525 -0.2891118685 0.1926306557
S -1.6675020391 1.6190923983 0.0652155555
O -2.3486467838 -0.8549565728 1.6449477066
C -2.5110678069 -0.0358729566 2.8272117097
C -1.4437673096 -0.3973295264 3.8404534581
O -3.4987264683 -0.634854896 -0.5148720415
C -3.8641504076 -0.1338328949 -1.813639742
C -5.3716717063 0.0174318095 -1.8549378622
H 5.3408285912 -1.6134327039 1.4747004562
H 3.9901567106 -0.4793307937 1.6045694798
H 3.6771405466 -2.2105207051 1.4121352926
H 4.7189437254 -2.1301761745 -0.8760509295
H 4.9940587758 -0.3783339822 -0.6593430661
H 3.739775972 3.2720243223 -0.2715898181
H 2.3065878123 2.9805144441 -1.3042270012
H 1.7371225268 4.2181024779 0.822211826
H 0.8793873107 2.6852661355 0.6682404359
H 2.2763641583 2.8070277871 1.7503598318
H 0.0165426006 -2.2674691682 1.5814572114
H 1.2167696288 -2.4738250574 0.2583328868
H -2.4437716644 1.0184322506 2.5393851031
H -3.5126660315 -0.2503801881 3.203486582
H -0.4562773005 -0.1719515091 3.4421610772
H -1.6040321046 0.1840378553 4.7424379157
H -1.4995888621 -1.4549957138 4.0814424377
H -3.3616664091 0.8264355485 -1.9778990037
H -3.5116602497 -0.8496842911 -2.5613843649
H -5.6672492587 0.3589351994 -2.8415124027
H -5.8437449207 -0.9379987801 -1.6453706657
H -5.6935620827 0.7419063362 -1.1119343505
*
