  26
  -39.3816212600000        1.00000000000000      !input
 C          3.4979265075       -0.0000058103       -0.0000183766
 C          2.8130885839       -1.2018090139       -0.0000137074
 C          1.4175679582       -1.2261492720        0.0000017287
 C          0.6764892634       -2.4453952536        0.0000072816
 C         -0.6764924241       -2.4453922195        0.0000099383
 C         -1.4175713517       -1.2261463697        0.0000074947
 C         -2.8130913949       -1.2018067118        0.0000048415
 C         -3.4979273517       -0.0000025953       -0.0000161653
 C         -2.8130876305        1.2018066353       -0.0000207749
 C         -1.4175723957        1.2261524203       -0.0000024999
 C         -0.7076946936        0.0000021183        0.0000042537
 C          0.7076922482        0.0000016178        0.0000049458
 C          1.4175739101        1.2261480518        0.0000065664
 C          2.8130919785        1.2018047929       -0.0000030673
 C          0.6764931603        2.4453971363        0.0000161039
 C         -0.6764876728        2.4453959502        0.0000122792
 H          4.5779833669       -0.0000053092       -0.0000143696
 H          3.3561394734       -2.1357008102       -0.0000203524
 H          1.2285505524       -3.3743366163        0.0000137175
 H         -1.2285489647       -3.3743355707        0.0000222618
 H         -3.3561435202       -2.1356974518        0.0000027189
 H         -4.5779876487        0.0000031858       -0.0000219156
 H         -3.3561463766        2.1356918124       -0.0000228167
 H          3.3561578219        2.1356850782        0.0000053713
 H          1.2285559098        3.3743383745        0.0000159925
 H         -1.2285450626        3.3743397123        0.0000093549
