! wb97x-v def2-tzvp def2/J RIJCOSX DEFGRID2 scfconv7 GCP(DFT/TZ) printgap
%output
    printlevel normal
end
* xyz 0 1
C 3.513062479019202 -3.7457671112448014e-06 -6.238784695397969e-06
C 2.825429406361395 -1.2093370447154566 -4.936463762832271e-06
C 1.4233979432547446 -1.2339383706894238 1.4236826139810064e-06
C 0.6806374913247627 -2.45775106938881 5.9005447878319215e-06
C -0.6806404436896873 -2.457749867214855 7.903101126033137e-06
C -1.4233988840075213 -1.2339360422399406 3.5832623515005283e-06
C -2.8254302792656416 -1.209332456352877 -1.8908204325821706e-06
C -3.513061333822245 1.9256205018165774e-06 -8.503653764170078e-06
C -2.825428176839652 1.2093356708320588 -7.075051807711471e-06
C -1.4233971796484999 1.2339374267850738 -5.0973815042464284e-08
C -0.7099283553843416 7.995782984869993e-08 3.131796544626897e-06
C 0.709929005897558 -1.119097710250286e-06 3.486456127817888e-06
C 1.4234001721213212 1.2339350174669992 3.5747416458897624e-06
C 2.82543122309225 1.2093310905274297 -8.648859048842492e-07
C 0.6806413978973557 2.4577490408630633 6.2928258702667656e-06
C -0.6806364088485126 2.457750096356488 3.602513209870911e-06
H 4.59855822310342 -4.142479401931037e-06 -1.265335444532045e-05
H 3.3698354760463527 -2.1492191921377266 -8.785626057838246e-06
H 1.2323086294617716 -3.3936096490797047 7.164915670898977e-06
H -1.23231283384326 -3.393607601525301 1.110474312510017e-05
H -3.369837761889736 -2.1492136722325568 -1.2433603623015768e-06
H -4.598557012222515 3.433020278760377e-06 -1.5148885668850248e-05
H -3.369835502202106 2.1492169622349313 -1.2443741250760824e-05
H 3.3698400949834846 2.1492116048902488 -1.0955238074503723e-06
H 1.2323140314497119 3.393606756794534 9.96232156415733e-06
H -1.2323071950497722 3.3936087863834925 4.64991137161272e-06
*
