! pbe def2-sv(p) def2/J RI DEFGRID1 loosescf d4 GCP(DFT/SV(P)) printgap
%output
    printlevel normal
end
* xyz 0 1
C 3.8442434329 1.6530308664 -1.1785563599
C 4.0983932793 1.0389715007 0.1832540248
O 3.3232980307 -0.1499186173 0.3808394576
P 1.7266613846 -0.1171559365 0.4634741454
S 1.1247208055 1.4083598271 1.5527808874
O 1.4051115593 -1.5588384737 1.041789683
C 1.4269667103 -1.8186910678 2.4597436473
C 2.8340234335 -2.0774587632 2.9571334377
S 1.2519023091 -0.4675690525 -1.5810266645
C -0.0358685292 -1.7450997271 -1.5700646058
S -1.7198714895 -1.174548121 -1.9882134655
P -2.0127037265 0.2244210782 -0.4258533557
S -3.8602633203 0.8178926361 -0.1934037742
O -0.9287353082 1.3485954049 -0.7126495362
C -1.1101776477 2.2599725982 -1.816405926
C -1.604416689 3.6005466726 -1.3125037305
O -1.3113028959 -0.4175544811 0.8486764642
C -2.1067805162 -1.0986613647 1.8397460176
C -2.4299202636 -2.5180110424 1.4168098779
H 4.0286404704 0.9252299903 -1.9646607574
H 2.80463628 1.9782691563 -1.240580994
H 4.4911934855 2.5129531263 -1.3185233184
H 3.8490676129 1.7511263466 0.9775008354
H 5.1312471633 0.7057807193 0.2913929547
H 0.9836008106 -0.9612231801 2.9779184113
H 0.7930733454 -2.6986609941 2.584875221
H 2.79229799 -2.3803843337 3.9988153968
H 3.2992794583 -2.8638477583 2.3692189185
H 3.4342088686 -1.1743145222 2.8732216683
H -0.0416853491 -2.2340836676 -0.6011824026
H 0.2207028689 -2.4429331075 -2.3634569825
H -0.1251139369 2.3431520079 -2.2821049981
H -1.8144495902 1.8243498835 -2.5343990349
H -1.6579376326 4.2988243301 -2.1412801186
H -2.5925574973 3.4922139527 -0.8698853466
H -0.9242203898 3.9831830901 -0.5558924171
H -1.4987615321 -1.0678907797 2.7449550901
H -3.0260437362 -0.5252322075 1.9991359615
H -2.989757081 -3.0047229199 2.209011044
H -3.0371802297 -2.5059590481 0.5122175958
H -1.5194843384 -3.0811666917 1.2261943811
*
