! pbe def2-sv(p) def2/J RI DEFGRID1 loosescf d4 GCP(DFT/SV(P)) printgap
%output
    printlevel normal
end
* xyz 0 1
C 4.9367582934 1.6986246234 -0.6687530031
C 4.6131046791 0.2346559803 -0.8977822131
O 3.7451312404 -0.2713724796 0.1362644507
P 2.16335959 -0.2880233371 0.0065298148
S 1.2865773304 1.4368102179 -0.3509721991
O 1.7552602233 -1.0204255837 1.3444146866
C 1.3597930438 -0.3174257658 2.5392547652
C 2.5022443673 0.4954687985 3.1094110161
S 1.8329817772 -1.8063754026 -1.4195152852
C 0.0934105421 -1.4617108379 -1.7730073406
S -0.9842205529 -1.7097250541 -0.3219039604
P -2.0840910068 0.1015136581 -0.3736450222
S -2.0126335306 1.1816957942 -1.9958593462
O -1.5914109618 0.7812131913 0.9915103498
C -1.7234394229 2.2011141378 1.2014578983
C -3.173289867 2.6163346387 1.3382242167
O -3.5705335446 -0.3844284641 -0.0999923747
C -3.9182108284 -1.1956746385 1.0484343602
C -5.4250102672 -1.1571176304 1.1986099875
H 4.0316808458 2.2992269283 -0.729714151
H 5.3827748509 1.8340207272 0.3125605029
H 5.6341720263 2.0337388607 -1.4296528555
H 5.5081699079 -0.3861969724 -0.8285193872
H 4.1409258143 0.0834824913 -1.872734789
H 0.505356874 0.3220728606 2.2972908674
H 1.0448957142 -1.1142176797 3.2143934789
H 2.778131314 1.2812370443 2.4064102454
H 2.1948062781 0.948647694 4.0466602717
H 3.3659556422 -0.1420344485 3.2787588605
H -0.2000303314 -2.169363638 -2.5442855873
H -0.0253266013 -0.4315193549 -2.1214204907
H -1.1572433255 2.3894890828 2.1151031817
H -1.2428903489 2.7192749247 0.3652515273
H -3.645308366 2.0839451891 2.1602352616
H -3.2226459012 3.6843800373 1.5253176657
H -3.7077802275 2.3943467057 0.4145158622
H -3.5583276825 -2.2113204814 0.8632573947
H -3.4127779968 -0.793216506 1.9303875205
H -5.8958745523 -1.5300721496 0.293806977
H -5.7150110658 -1.7795276923 2.0388943972
H -5.7606553898 -0.1383088293 1.3708129509
*
