! pbe def2-sv(p) def2/J RI DEFGRID1 loosescf d4 GCP(DFT/SV(P)) printgap
%output
    printlevel normal
end
* xyz 0 1
C 3.265253559 -0.3763601334 -2.658867977
C 2.077953487 -0.9919587709 -1.950228514
O 1.4935935984 -0.0473603052 -1.0159914944
P 1.8279331594 -0.0220298913 0.5186817168
S 0.9216546087 1.4152459186 1.4871069202
O 3.4118754935 0.0354971652 0.5450896201
C 4.1332117307 0.0982740138 1.7945011279
C 5.574539578 0.4428507705 1.4809880327
S 1.4171365068 -1.9683692934 1.2653642817
C -0.3698616882 -1.7453746007 1.4305124731
S -1.2369534506 -1.7152418032 -0.1731936019
P -2.0139030767 0.2505921551 -0.374340869
S -1.1246138574 1.6208286012 -1.4673250953
O -2.2880162379 0.5724985739 1.1504475468
C -2.5379018094 1.9137045775 1.6172439416
C -3.8509524292 2.4564957932 1.097336291
O -3.4848382788 -0.0616175142 -0.9051398147
C -3.7933226692 -0.1383320988 -2.3037215936
C -3.1701377216 -1.3615099547 -2.9451063139
H 4.0550986833 -0.1525978324 -1.946817432
H 3.6353725671 -1.0764828563 -3.401225641
H 2.964695598 0.5451919737 -3.1505287172
H 2.3597665051 -1.8983602366 -1.4066733044
H 1.2676189487 -1.2160755147 -2.6469790506
H 3.664363295 0.8584385824 2.4275919603
H 4.0503962807 -0.875887221 2.2836301357
H 6.0083773181 -0.3185389256 0.8393776999
H 5.6279902142 1.4035890396 0.9764121911
H 6.1362199217 0.4939253942 2.4078140643
H -0.569522782 -0.8181229371 1.9667478915
H -0.7396544403 -2.6104785184 1.9739634689
H -2.5368024896 1.8130355556 2.703594792
H -1.6992343085 2.5486111142 1.3125964951
H -4.659025349 1.7675789055 1.3289127995
H -4.0472209677 3.4185326003 1.5600505774
H -3.7951694528 2.5873759567 0.0173497718
H -4.8828944053 -0.1734663135 -2.3348821234
H -3.4330987753 0.7757309463 -2.7882364761
H -3.4720149182 -1.421330657 -3.9856436264
H -2.0833545821 -1.2843024126 -2.8935794515
H -3.4784197755 -2.2631304107 -2.422446166
*
