! r2scan-3c def2/J RI DEFGRID2 scfconv6 printgap
%output
    printlevel normal
end
%cpcm
    smd true
    smdsolvent "water"
end
* xyz 0 1
C 1.9999211938 0.6691196557 -3.1245785324
C 1.5722583408 -0.6411117945 -2.4934062451
O 2.4580691845 -1.0275363494 -1.4313374053
P 2.3425600995 -0.5524276904 0.0732810724
S 2.6031339036 1.3444418458 0.5165962141
O 3.4916946664 -1.5099052536 0.5909901131
C 4.2212967246 -1.2555680054 1.8016337682
C 3.3570972739 -1.4404303255 3.0334572517
S 0.5104006645 -1.4296640345 0.7258264634
C -0.0866782493 -0.117892158 1.8481944285
S -1.8900163904 0.0079014154 1.8562749478
P -2.1822332718 0.5285384747 -0.1574918138
S -0.8378856694 1.6557557741 -1.0482390643
O -3.6602917546 1.1143698205 -0.2286329272
C -3.9484645594 2.5131391507 -0.0615953855
C -3.6652970916 2.9871168297 1.349150594
O -2.3911491502 -0.9160938181 -0.7674055135
C -2.5133731673 -1.1499405958 -2.1886408528
C -2.0523310246 -2.5657608957 -2.4688482952
H 1.8753882906 1.486986652 -2.4167987877
H 3.0429257372 0.6169849453 -3.42389304
H 1.3812693528 0.8679944528 -3.9938184918
H 1.6349597969 -1.4650371271 -3.2071566651
H 0.5511133474 -0.5659976713 -2.1078484011
H 5.0383112435 -1.977538831 1.7698479859
H 4.6221966196 -0.2375642473 1.7627271387
H 2.6108846541 -0.648066121 3.0786980274
H 2.855242926 -2.4042807668 3.0001865972
H 3.9785558774 -1.3876222457 3.9216231898
H 0.3592648248 0.830336602 1.5325258774
H 0.188246472 -0.363489129 2.8712454512
H -3.3512892615 3.0775238533 -0.785220592
H -5.0073730952 2.5935969042 -0.310564238
H -4.010789456 4.0097911964 1.4615920155
H -4.1723583191 2.3509884088 2.0702289611
H -2.5940316243 2.9539388464 1.5450646847
H -3.5617446662 -1.0076519981 -2.4603521362
H -1.9027390831 -0.4114690804 -2.7209520691
H -2.1337495201 -2.7646948513 -3.5323594342
H -1.0193611404 -2.6943662751 -2.1551141738
H -2.6702816995 -3.2696193029 -1.9194635531
*
