! pbe def2-sv(p) def2/J RI DEFGRID1 loosescf d4 GCP(DFT/SV(P)) printgap
%output
    printlevel normal
end
* xyz 0 1
C 2.3105074824 -3.6098633188 -0.3653774724
C 2.9745898389 -2.2806126868 -0.0446801944
O 2.1914019842 -1.1815211037 -0.5476151874
C 2.3271526711 -0.8464823812 -1.8222819683
O 3.1206142048 -1.3591262524 -2.5776890888
C 1.3925328756 0.2730309584 -2.2298429063
C 0.3447156388 0.6037420204 -1.17770097
H -0.244314444 1.4722630015 -1.4930747576
C 0.9469047418 0.9316158639 0.1747853184
O 0.4792731588 0.5124140936 1.2142044531
O 1.9758873292 1.7296892889 0.0758043848
C 2.5734309246 2.223481347 1.2935630052
C 1.8549706394 3.477021031 1.7648999793
S -0.8231482975 -0.7791576033 -0.9337843892
P -2.039098063 0.1129786388 0.5612645477
S -2.134632458 2.0679993951 0.5966029553
O -3.4580104688 -0.5538572512 0.1874800485
C -4.158779832 -0.1966681534 -1.0058295224
O -1.8457555268 -0.5640124055 1.975596927
C -1.5267923488 -1.9578727569 2.1317434754
H 1.2882632689 -3.6178037739 0.004363393
H 2.2957732736 -3.7681105396 -1.4409712543
H 2.8694918104 -4.412540811 0.1038452116
H 3.9725182378 -2.2272337733 -0.4889805241
H 3.0268788756 -2.1084801717 1.0310354896
H 0.9135749995 -0.0161065457 -3.1665513105
H 2.0017937952 1.1593189176 -2.4224439185
H 2.5232703405 1.4371676098 2.0512771792
H 3.608461487 2.4316593644 1.022929318
H 1.8922086709 4.2438300451 0.9963329391
H 0.8117065194 3.253037201 1.9820567137
H 2.3304104237 3.8478962656 2.6666998857
H -4.2111207894 0.8897114117 -1.0975080825
H -5.1556990045 -0.6160924765 -0.8980201733
H -3.6540938985 -0.6204375681 -1.8741472679
H -1.6630090491 -2.1635947015 3.19025467
H -0.4888350272 -2.1212657718 1.8413333271
H -2.1940043192 -2.5710728733 1.5276327044
*
