! wb97x-v def2-tzvp def2/J RIJCOSX DEFGRID2 scfconv7 GCP(DFT/TZ) printgap
%output
    printlevel normal
end
%cpcm
    smd true
    smdsolvent "water"
end
* xyz 0 1
C 3.506678587650712 0.6970302337568096 -0.5599521846520422
C 3.506490370247731 -0.6959415293024107 -0.5611072607393991
C 2.37501611721724 -1.3901829898053006 -0.13740212151665282
C 1.2434580237979351 -0.7007555211108829 0.29639677630981115
C 1.2434349465537078 0.7011002621870068 0.29695053604925303
C 2.375226039010163 1.3909043392740708 -0.1355555737713521
C -0.00020090795331943599 1.4110001604390712 0.7696237006401203
C -1.243467237057013 0.700733670700586 0.2964882630298659
C -2.375076125434342 1.3901651886549715 -0.13717129230178746
C -3.5065400496123518 0.6959285113272773 -0.5609161688571653
C -3.506668360744898 -0.6970446479117831 -0.5599592160821054
C -2.375186609005923 -1.3909225628636936 -0.1356538135397339
C -1.2434215703135483 -0.7011210280478697 0.29692510297305613
C 0.0002151630584572102 -1.4110161156942185 0.7695849689203362
H 4.382984817304193 1.243325321830972 -0.8948752554902213
H 4.382560718671617 -1.2419383247256242 -0.8971889417042545
H 2.368330752661268 -2.4769100458183066 -0.1453465130677792
H 2.3687434614143474 2.4776431679844535 -0.14194249328012795
H -0.0005081661356866446 1.4176653422028935 1.8713352378466324
H -0.00026806267872138 2.45580447819428 0.44816177030901183
H -2.3684400375234222 2.476893792650741 -0.1449899477412207
H -4.382652632570229 1.2419296249576428 -0.8968779649937231
H -4.382955226231562 -1.243333747142532 -0.8949480722005352
H -2.36865280544087 -2.4776604520235423 -0.14216878474662095
H 0.0005541395349690154 -1.4175853066455752 1.8713013020577813
H 0.0002741607772896093 -2.4558453466580055 0.44820200873965294
*
