! pbe def2-sv(p) def2/J RI DEFGRID1 loosescf d4 GCP(DFT/SV(P)) printgap
%output
    printlevel normal
end
* xyz 0 1
C 3.7988184268 -0.3654934699 -2.3287004771
C 2.5113966858 0.4133205622 -2.1693890827
O 1.7761096592 -0.0267091162 -1.0122553565
P 2.2599953898 0.2786338335 0.4607768422
S 3.289740986 1.9222534623 0.7257845495
O 2.9769388203 -1.1028022515 0.8240583931
C 3.5970853507 -1.3111796942 2.1080069702
C 5.0754045343 -0.9781942803 2.0571915063
S 0.4491569128 0.2035879758 1.524361817
C -0.2376599368 -1.3625248133 0.8454121015
S -2.0317580668 -1.3223605429 0.872779708
P -2.2873372005 0.08772041 -0.7119571304
S -1.1604300514 -0.256987641 -2.2766392249
O -1.9877758225 1.5458610646 -0.1904418103
C -2.822235527 2.3471155457 0.6816454827
C -2.9908140684 1.7411589858 2.0594837628
O -3.8611430261 0.1291874912 -0.9092892503
C -4.7117835152 -1.0283827525 -1.0184095564
C -4.2941484477 -1.957934709 -2.1380321664
H 4.4577878752 -0.1557530423 -1.4866824134
H 3.5907349403 -1.4316614697 -2.359310594
H 4.2898206925 -0.064449219 -3.2485538985
H 1.8164975144 0.2440774364 -2.9943360831
H 2.7128787533 1.4845344395 -2.0670491812
H 3.0846987559 -0.7003796043 2.8587523615
H 3.4373476392 -2.3692606834 2.3244098492
H 5.5645882743 -1.5685438012 1.2874942778
H 5.2158051052 0.0773240505 1.8344726818
H 5.5249034953 -1.1987992183 3.0199233727
H 0.0700904656 -2.1914465958 1.4767337545
H 0.1068332061 -1.4754380249 -0.1827583981
H -2.2858660888 3.2964443659 0.7274089125
H -3.7872757208 2.4871993192 0.1912175895
H -3.50098709 2.4577451799 2.6956729151
H -3.5820182573 0.8295204616 2.0099821195
H -2.0191488977 1.5100108701 2.4918621939
H -4.7009735633 -1.5510863419 -0.0581993424
H -5.6999618702 -0.6022239632 -1.2004047001
H -3.3122939277 -2.3799573335 -1.9291769803
H -5.0153032762 -2.7640874353 -2.2250695078
H -4.2411188641 -1.4179553859 -3.0805218739
*
