! pbe def2-sv(p) def2/J RI DEFGRID1 loosescf d4 GCP(DFT/SV(P)) printgap
%output
    printlevel normal
end
* xyz 0 1
C 0.7950241206 1.4339061159 -0.485639927
C 1.5961136382 0.1825290867 -0.069549496
H 2.4985574773 0.1559558631 -0.6910091523
C 0.7703088023 -1.1010773106 -0.3156379793
H 1.2386723587 -1.9236272821 0.2441610347
C -0.6649024903 -0.9083100772 0.2163755343
H -1.2546905071 -1.8039713667 0.0026101397
C -1.2704454495 0.316634196 -0.4873768794
H -1.1672082397 0.2204390146 -1.5761830784
O -0.5407288591 1.4402623192 -0.0139739153
O -2.608399297 0.5006607972 -0.2246356661
O -0.679646433 -0.6854044767 1.6071993219
O 0.6654991318 -1.4098595443 -1.6831837245
O 2.0671090348 0.2450308857 1.2551670631
H 0.7918285264 1.5003746033 -1.5803654357
H 1.2584946376 2.3241470005 -0.0593322665
H -2.7668472772 0.4900069809 0.7341502956
H -0.6752019422 0.2814318278 1.7412678232
H 1.5066100174 -1.763784839 -2.0065897767
H 1.3590840054 -0.0111136005 1.8676473589
*
