! pbe def2-sv(p) def2/J RI DEFGRID1 loosescf d4 GCP(DFT/SV(P)) printgap
%output
    printlevel normal
end
* xyz 0 1
C 3.399466813 -2.7620316458 -1.3966011839
C 4.435728581 -1.8370019667 -0.7969138737
O 4.0220803172 -0.4464147921 -0.8200423521
P 2.7445742921 0.143629308 -0.1217655052
S 2.9003930799 2.069310478 0.2007459761
O 2.6253466166 -0.7589514376 1.1830969013
C 1.7270666737 -0.451146616 2.2659208414
C 2.2979972283 -1.0564767356 3.5323395518
S 1.0992614969 -0.4055049182 -1.3801568634
C 0.0655511486 1.0559690684 -1.1359843146
S -0.9035059809 1.0027980766 0.3905343867
P -2.8015413327 0.3930955171 -0.3998272454
S -2.9073588981 0.2335818665 -2.3482359901
O -3.8210150379 1.4599307857 0.1484084456
C -3.7821450638 2.1161267352 1.4389316092
C -3.6623937628 1.1417344343 2.5897626653
O -3.2337532723 -0.9197423875 0.3880839233
C -2.8734649311 -2.2446537878 -0.0336520699
C -1.4775567619 -2.6202875162 0.4227420548
H 3.8028478316 -3.7691412096 -1.4357110592
H 2.4982308106 -2.7650891236 -0.7870157304
H 3.1383975123 -2.4418158219 -2.4022733068
H 5.3564218816 -1.8284810866 -1.3821560893
H 4.6527749033 -2.1083787096 0.2374715744
H 1.628970232 0.6364799835 2.3481318011
H 0.749681364 -0.8768557771 2.0257958296
H 3.2670627128 -0.61732098 3.7525314325
H 1.6210787051 -0.8575793713 4.356457325
H 2.415123486 -2.1294673459 3.4124142872
H -0.6169509059 1.1055968596 -1.9867776649
H 0.7087075607 1.9348724361 -1.0792475104
H -2.945813503 2.8200072568 1.4362519324
H -4.7256408892 2.6632545459 1.4666369431
H -4.4578449617 0.4029228517 2.5427012378
H -2.7010991652 0.6327299125 2.5472354877
H -3.731124509 1.6881834571 3.5253041456
H -3.6282853071 -2.8832979794 0.4281442884
H -2.9580265032 -2.3035063497 -1.1239442004
H -0.7356186776 -2.0193518297 -0.0999097483
H -1.3811719204 -2.4642513413 1.4941464101
H -1.2982589087 -3.6660577883 0.1949990448
*
