! pbe def2-sv(p) def2/J RI DEFGRID1 loosescf d4 GCP(DFT/SV(P)) printgap
%output
    printlevel normal
end
* xyz 0 1
C 3.2548381834 -0.6276008534 -2.7048606226
C 2.0128789096 -1.0992734975 -1.9790996395
O 1.4719617208 -0.0558343048 -1.1316263679
P 1.8447359159 0.1572642183 0.3843316755
S 0.8824259386 1.6508141761 1.1971810905
O 3.4248659958 0.3110687059 0.3484491447
C 4.1774668841 0.8672189502 1.4429356378
C 4.1574818699 -0.0229420782 2.6683253155
S 1.5283078709 -1.7338871076 1.2992478834
C -0.2666411913 -1.5857452369 1.4582146023
S -1.1509745789 -1.7594950087 -0.1305152776
P -2.0004177309 0.1416107245 -0.5055010663
S -1.2046293381 1.4287055781 -1.7618364652
O -2.241779342 0.6161705156 0.9834631874
C -2.7172656053 1.9508721451 1.2714498978
C -2.4845298271 2.2179690211 2.7430065901
O -3.4885136504 -0.2366674468 -0.9466959369
C -3.845102844 -0.4530174014 -2.3190362676
C -3.2205702117 -1.7230713171 -2.8597345413
H 3.5711986087 -1.400582832 -3.3982740402
H 3.0371674607 0.283302657 -3.2565642373
H 4.055049734 -0.4281878599 -1.9974198981
H 2.2185688502 -1.9813678886 -1.3655360132
H 1.2018479778 -1.3168317307 -2.6774786502
H 5.184576809 0.9715992776 1.0367385839
H 3.7673919538 1.8548381808 1.6756925963
H 4.8544872875 0.367811341 3.4027000458
H 3.1598597344 -0.0390483921 3.103453627
H 4.4420530869 -1.0381488813 2.4037020623
H -0.5140629208 -0.6219746441 1.9011601601
H -0.5887424341 -2.4106810226 2.0876693961
H -2.1646813005 2.6588986685 0.6441223833
H -3.7778902327 1.9907687488 1.012121227
H -1.4182106009 2.2011925621 2.9558713483
H -2.8809992622 3.196772635 2.9912776035
H -2.9828919145 1.4610853306 3.341620995
H -4.9342417226 -0.5075018104 -2.3064545643
H -3.5195382953 0.4158773824 -2.9012782485
H -2.1341575877 -1.6250845039 -2.8495153348
H -3.4976830895 -2.5746364249 -2.2440129107
H -3.551864299 -1.8866724644 -3.8799429531
*
