! pbe def2-sv(p) def2/J RI DEFGRID1 loosescf d4 GCP(DFT/SV(P)) printgap
%output
    printlevel normal
end
* xyz 0 1
C 4.7899118182 -1.4455354261 0.0867629087
C 4.0027734344 -1.7419307805 -1.1709034946
O 3.1700421444 -0.633413141 -1.5867090343
P 2.0472817844 0.0814964151 -0.7378133786
S 0.8868998931 1.103944671 -1.9366368362
O 2.8901204893 0.9230547735 0.307838398
C 2.4459470282 2.113086943 0.9774734989
C 3.6480575063 3.0149445325 1.1705442453
S 1.1381616714 -1.4942133991 0.3730846952
C -0.2942246858 -1.7922837884 -0.715157251
S -1.8777854133 -1.8131511155 0.1559967177
P -2.1135004 0.2723273732 0.5254545543
S -0.699419743 1.1806318449 1.5280278055
O -3.5779475777 0.3299311796 1.138179114
C -4.073125834 -0.5177222567 2.192827045
C -3.1826821171 -0.5127231062 3.4170877183
O -2.3066689902 1.0095574082 -0.8509878496
C -3.3576420458 0.7557947731 -1.8152315626
C -2.8797162691 -0.1773031855 -2.9109016788
H 5.3741214092 -0.537776848 -0.0379534502
H 4.1133340832 -1.3150745262 0.9296676824
H 5.455723694 -2.2777996347 0.2932309319
H 3.362081489 -2.6159100891 -1.0276179747
H 4.6556966213 -1.8956136242 -2.0312264613
H 1.6724337182 2.5978723686 0.372270609
H 2.0012911285 1.821117864 1.9324129428
H 4.0647579708 3.2931787883 0.2061283022
H 3.3356029566 3.9096501863 1.6986724928
H 4.4075827303 2.499750043 1.7510789345
H -0.192962526 -2.7817622542 -1.1530742177
H -0.3050358735 -1.0111254279 -1.4806576117
H -5.0576199385 -0.1010854911 2.4131736893
H -4.1765693041 -1.5305046109 1.7937575614
H -3.6433662119 -1.1057098702 4.2004738986
H -2.2091431445 -0.9379458418 3.1755822025
H -3.0326565444 0.5038908776 3.7733532174
H -4.2303183964 0.3567920707 -1.2950259382
H -3.5852839244 1.7448923708 -2.2157242619
H -1.9281686981 0.1764832839 -3.3031382521
H -2.7585137377 -1.1903858521 -2.5350415318
H -3.6118524397 -0.1847057633 -3.7120473402
*
