! pbe def2-sv(p) def2/J RI DEFGRID1 loosescf d4 GCP(DFT/SV(P)) printgap
%output
    printlevel normal
end
* xyz 0 1
C 2.0447383458 -1.2912564939 -2.754376242
C 2.6748811574 -0.0290596734 -2.2007481387
O 3.2267994641 -0.2705441207 -0.8928833775
P 2.530497731 0.1034055989 0.4811116391
S 2.0774855961 1.9887667036 0.7756385574
O 3.6358160579 -0.3382047326 1.5170807378
C 4.5506022507 -1.4519178936 1.3603914684
C 3.8407075818 -2.7856757472 1.2639705789
S 0.904433752 -1.250350938 0.7170677026
C -0.190278676 -0.2098214674 1.7368869031
S -1.9272322196 -0.5641778997 1.4238606358
P -2.2099982194 0.5752757616 -0.3663960236
S -0.6551641526 0.9629062901 -1.4852580201
O -2.8419746769 1.9445237521 0.0965234798
C -4.0459982268 2.0452360257 0.8951001862
C -5.2512623826 2.309099316 0.0155057668
O -3.4430644157 -0.1590700506 -1.044512849
C -3.5185921477 -1.5748022954 -1.3107129726
C -2.2549798281 -2.1295969705 -1.9328970326
H 1.7103954017 -1.0988870044 -3.7683033025
H 2.7680267783 -2.1015966768 -2.7574912665
H 1.1856828908 -1.5777148162 -2.1530566921
H 1.9457650216 0.7844310355 -2.1470572905
H 3.5271991449 0.2886069635 -2.8045190458
H 5.159833303 -1.2673694579 0.4739727427
H 5.1696216141 -1.3887019088 2.2567299683
H 3.2326748382 -2.8273512832 0.3621918818
H 4.5830854065 -3.5768869075 1.2271302532
H 3.1965428008 -2.9389041021 2.125798842
H 0.0309521795 0.8381207451 1.5146760218
H -0.0181288823 -0.4355920236 2.7863431597
H -4.1675272384 1.1237335697 1.4719461045
H -3.8565439369 2.8812952623 1.5710005431
H -5.4153801477 1.474219676 -0.6602544465
H -6.126632694 2.4422522358 0.6434405325
H -5.09107673 3.208300942 -0.5732050577
H -3.7386284012 -2.0805471593 -0.3668114688
H -4.368960536 -1.6640643807 -1.9889186435
H -1.9941496419 -1.5682725967 -2.8272604114
H -1.4264359075 -2.0618392852 -1.2277354657
H -2.4089274022 -3.1718444187 -2.1929548544
*
