! r2scan-3c def2/J RI DEFGRID2 scfconv6 printgap
%output
    printlevel normal
end
* xyz 0 1
C 2.5244183475 -3.0674663235 0.3263784376
C 3.2703961737 -2.7178023119 -0.9518123597
O 2.4344136261 -1.9216538867 -1.8148823948
C 2.3628047635 -0.6283168595 -1.5977677774
O 3.0169141297 -0.025371319 -0.7725424659
C 1.3124347602 0.0328069617 -2.4702478218
C 0.201071323 0.5342298243 -1.5421994181
H -0.5560660988 1.0737369801 -2.1177140543
C 0.8037453281 1.4986234101 -0.5338693659
O 1.2494797829 2.5696969713 -0.8748911555
O 0.8045283789 1.0461448535 0.7031578468
C 1.4626247676 1.8748500021 1.6844071446
C 1.4279948697 1.1728235639 3.0255712847
S -0.5933537198 -0.8937262088 -0.7352039206
P -1.9183405427 0.1701708309 0.539989421
S -2.2291586069 2.0563419833 0.1055607988
O -3.2350709497 -0.7396341798 0.4918285789
C -4.0383181042 -0.8238403826 -0.6905319613
O -1.4704391488 -0.0732479294 2.0325517662
C -1.2619725502 -1.4059370372 2.5466309305
H 1.5907491877 -3.5680439837 0.0848385825
H 3.139301803 -3.7188686044 0.938107005
H 2.3039134712 -2.1599959694 0.8848067291
H 3.4999400333 -3.6067396174 -1.5383975556
H 4.1828976909 -2.1567414104 -0.7309749641
H 0.9182619295 -0.6860396339 -3.1861795285
H 1.7503001882 0.8934653198 -2.9779993855
H 2.4857238041 2.0371882568 1.3305904929
H 0.9435345561 2.8384862368 1.7114003091
H 0.4000435129 1.0504717187 3.3532260004
H 1.9013826261 0.1984629193 2.9474150938
H 1.9661451272 1.7753550327 3.7496128045
H -3.5123168028 -1.3956794225 -1.4548642378
H -4.2666153593 0.1765017155 -1.0615271134
H -4.9497214494 -1.3334455011 -0.3887857998
H -2.203271286 -1.9511916652 2.5515529149
H -0.888209189 -1.2692310995 3.5578352011
H -0.5292716417 -1.9287664292 1.9320250756
*
