! pbe def2-sv(p) def2/J RI DEFGRID1 loosescf d4 GCP(DFT/SV(P)) printgap
%output
    printlevel normal
end
* xyz 0 1
C 5.4862438559 -0.0611176729 0.6889373168
C 4.3976047586 -1.0680179002 0.3799709759
O 3.6805188999 -0.7049129774 -0.8266895722
P 2.3378517957 0.1182840336 -0.8409516537
S 1.6917034689 0.3567564518 -2.6699173543
O 2.7472192837 1.441563292 -0.0589920424
C 1.8873674895 2.589111794 0.0663586826
C 1.2461891268 2.63380014 1.4393190666
S 1.0544526174 -0.9329099429 0.4999138189
C -0.0596879984 -1.7022226847 -0.7221716965
S -1.7140374999 -1.9265463129 -0.0531908084
P -2.1483488758 0.1257903928 0.3553780994
S -1.498500183 1.3977124283 -0.9875926581
O -1.5670720686 0.459794117 1.7827950739
C -2.1324648251 0.0644380043 3.0576913667
C -2.0453852715 -1.4288739377 3.2927935697
O -3.7143128581 0.1343303902 0.6231606828
C -4.6869231532 0.2893445926 -0.425072216
C -4.6917216841 -0.8795051737 -1.3885605231
H 6.0462804674 -0.3995568702 1.5551106751
H 6.1581404004 0.0314208253 -0.1599286418
H 5.0526609947 0.9128427585 0.8984202231
H 3.6830362186 -1.1483143118 1.2043514934
H 4.817087409 -2.0505850064 0.156909685
H 2.5426211805 3.4478237208 -0.092460148
H 1.1305733673 2.5650907664 -0.7247214914
H 0.5575714088 1.8012623565 1.5666953709
H 2.0095557459 2.5854717626 2.2105024668
H 0.6900031687 3.5608106198 1.5361801022
H 0.3073816532 -2.6938580742 -0.975377765
H -0.0922681398 -1.0552837856 -1.6039688969
H -1.525445056 0.6177523503 3.7759695868
H -3.1665391164 0.4106032854 3.0964640803
H -2.3347954931 -1.640852165 4.3173351955
H -2.7115769837 -1.9621941557 2.6185403407
H -1.0277231691 -1.7758923084 3.1289134718
H -5.6332196459 0.3717793168 0.1117036014
H -4.4768170239 1.2233954375 -0.9552736296
H -3.7688012983 -0.8913295869 -1.9666296079
H -4.7786975603 -1.8181923758 -0.8473428012
H -5.5293006808 -0.7764872441 -2.0710426153
*
