! r2scan-3c def2/J RI DEFGRID2 scfconv6 printgap
%output
    printlevel normal
end
%cpcm
    smd true
    smdsolvent "water"
end
* xyz 0 1
C -1.4836820793 -0.0001556942 0.1077702547
C -0.0555369454 2.8121e-06 -0.3733876836
F 0.6300207628 -1.0845550192 0.1051523188
F 0.6298016273 1.0846565143 0.1051881067
H -1.9832661988 -0.8884948705 -0.2643837391
H -1.5023830677 -1.89547e-05 1.1946014018
H -1.9832324259 0.8882652178 -0.2649781736
H 0.0643373483 0.0001573136 -1.4647620961
*
