! pbe def2-sv(p) def2/J RI DEFGRID1 loosescf d4 GCP(DFT/SV(P)) printgap
%output
    printlevel normal
end
* xyz 0 1
C 4.036044945 -1.1165739599 -2.76223769
C 4.2793657321 0.1404926476 -1.9529443913
O 3.7246152843 0.0475034579 -0.6287717842
P 2.15706658 -0.0003935955 -0.3606515475
S 1.1287001693 1.174327307 -1.5565108037
O 2.1088811667 0.2862078973 1.1937810279
C 2.5241870491 1.5527821778 1.7529657412
C 2.3428811876 1.4679209395 3.2529643059
S 1.6359226794 -2.032357651 -0.3602622216
C -0.0934521478 -1.9047139871 -0.899278232
S -1.2914219407 -1.8457357333 0.4698662261
P -1.9408920229 0.1632682359 0.5036606309
S -0.9296758084 1.5865787462 1.3780486764
O -3.342658147 0.0496081908 1.2366056923
C -4.394979857 -0.8554959904 0.8237068974
C -4.519424234 -2.0009338596 1.8080176364
O -2.2232087175 0.3417398233 -1.0620198043
C -2.3688203981 1.6398644543 -1.6641431859
C -3.6686141746 2.3008000184 -1.2558516419
H 2.9733978101 -1.2197390103 -2.9769238351
H 4.5800514742 -1.0497763864 -3.6988719996
H 4.369492465 -1.9916140807 -2.2103476404
H 3.8389923546 1.010543944 -2.450523212
H 5.3425981651 0.3102234684 -1.778246611
H 3.5681787712 1.7225527383 1.4780087011
H 1.8978325975 2.341051765 1.3228724445
H 2.9142098814 0.6338931663 3.6498854773
H 2.6832229112 2.3933023439 3.7054823578
H 1.2907835091 1.3225205318 3.4841565374
H -0.3103217939 -2.8151856076 -1.4509934336
H -0.2116386813 -1.0174961873 -1.5239117781
H -5.2995227499 -0.2444937937 0.8145885886
H -4.1822327239 -1.2176558514 -0.1851129067
H -3.611219812 -2.5996099943 1.810338153
H -4.6847429346 -1.612285377 2.8089602225
H -5.3591279517 -2.6259749385 1.5215368141
H -1.5099555611 2.2561813031 -1.3794209674
H -2.3276721413 1.4397985549 -2.7358767452
H -3.7599757531 3.2544025501 -1.7660777393
H -4.5132648834 1.6685733225 -1.5175129388
H -3.6706631298 2.4742591974 -0.1798172384
*
