! pbe def2-sv(p) def2/J RI DEFGRID1 loosescf d4 GCP(DFT/SV(P)) printgap
%output
    printlevel normal
end
* xyz 0 1
C 4.3217739739 -0.4688686882 -2.3792813223
C 4.3940006872 -0.5192139473 -0.8676461075
O 3.5102554566 0.420617845 -0.2292742559
P 1.9362724249 0.5035653403 -0.443438809
S 1.3341970928 1.3496903745 -2.1060702524
O 1.5133135072 1.3745230969 0.8048703599
C 2.2037945813 1.4089422914 2.0797319873
C 2.3172590635 0.0518194945 2.7403970465
S 1.2902651386 -1.5099194691 -0.1451049511
C 0.0489473695 -1.6383450224 -1.4545239132
S -1.644157971 -1.8811257069 -0.8460345477
P -1.9117661723 -0.2270982277 0.435721401
S -1.29606193 -0.2984576674 2.2990532681
O -3.4707992371 0.0757299712 0.3360972095
C -4.4173890987 -0.5380281941 1.2271887386
C -4.5523639519 -2.0228491518 0.9617857512
O -1.2728249648 0.9183071169 -0.4560761504
C -1.4450803697 2.3071474833 -0.0980519491
C -2.539682455 2.9345246076 -0.9341928998
H 4.4876223385 0.5455215514 -2.7340574058
H 5.0796967237 -1.1243507469 -2.7958756829
H 3.3415906574 -0.7952493513 -2.7230274843
H 5.3806860993 -0.223083549 -0.5069105175
H 4.1503648973 -1.5209419756 -0.5023150182
H 3.189478087 1.8467709064 1.9107936394
H 1.5893675349 2.0859513343 2.675317337
H 2.8030757469 0.1714739991 3.7036749647
H 1.3312812776 -0.3801565236 2.8954462981
H 2.907083665 -0.6275053446 2.1280554168
H 0.2638017871 -2.5306240617 -2.0382632413
H 0.0971224361 -0.7353930071 -2.0710902295
H -4.0913464304 -0.3575426313 2.2570657287
H -5.3486222804 -0.0046523559 1.033024374
H -5.3309337097 -2.4345740387 1.5957631917
H -4.8006214406 -2.2003155842 -0.081369842
H -3.6105509917 -2.5244656821 1.1855632412
H -1.6604634142 2.3715984701 0.9735604132
H -0.4769104064 2.7722264066 -0.2981885225
H -2.6190202824 3.9870322392 -0.6809666662
H -2.2936681246 2.8354719756 -1.9881635059
H -3.4897084191 2.4421470779 -0.7438552262
*
