! pbe def2-sv(p) def2/J RI DEFGRID1 loosescf d4 GCP(DFT/SV(P)) printgap
%output
    printlevel normal
end
* xyz 0 1
C 2.868956069 -2.7491163877 1.7456870439
C 1.5910439364 -2.6864763643 0.9377451895
O 1.2661479171 -1.330769975 0.5564760589
P 2.1593690057 -0.5198393964 -0.4650731835
S 2.9312623194 -1.5448688824 -1.9436415866
O 3.1777893304 0.219915103 0.517694467
C 4.2745269927 1.0054471868 0.0121012376
C 5.5475704227 0.1826205695 -0.0277480158
S 0.817852316 1.0073254187 -1.0567934511
C 0.3532026148 1.6411931905 0.5862897661
S -0.8556662545 0.6166553873 1.4539242251
P -2.3802319647 0.7146734233 -0.0305957342
S -2.5466680661 2.4115559482 -0.9874444205
O -3.6485618801 0.1529944324 0.7449855027
C -4.1137575542 0.6225533361 2.0259122628
C -4.3225882751 2.1213718012 2.0641952039
O -2.0955620385 -0.4466917514 -1.0626181516
C -1.9435398369 -1.8356310339 -0.6914567946
C -3.225676938 -2.6014918886 -0.9433609628
H 3.0230073128 -3.7645814275 2.0969576796
H 3.7125874193 -2.4583800163 1.121498124
H 2.8087666604 -2.07521883 2.5961008164
H 0.7262119537 -3.0063818193 1.5202868333
H 1.6774351771 -3.2896616634 0.0286071599
H 4.0217414946 1.3823558842 -0.9840663928
H 4.3662620664 1.8430113213 0.7064155136
H 5.7664265459 -0.2145238143 0.9594170198
H 5.438133803 -0.6436970736 -0.7268756517
H 6.3699143628 0.8119389685 -0.3523088776
H -0.0797452886 2.6237857219 0.4007383225
H 1.2311502963 1.6993975055 1.224536664
H -5.0534028238 0.0861475585 2.16939421
H -3.3884713245 0.3138535118 2.7837669295
H -4.7531069139 2.4007528743 3.020384396
H -3.3721559393 2.6373914002 1.9370282205
H -4.9889843893 2.4326298945 1.2632174754
H -1.1285587874 -2.2025477352 -1.3210645545
H -1.6461813235 -1.8923139031 0.3600711232
H -3.0656021856 -3.6497210132 -0.7112364526
H -4.0247612705 -2.2096969924 -0.3197443326
H -3.5160416525 -2.5041832941 -1.9858431717
*
