! pbe def2-sv(p) def2/J RI DEFGRID1 loosescf d4 GCP(DFT/SV(P)) printgap
%output
    printlevel normal
end
* xyz 0 1
C 3.3575485377 1.9476483607 -1.776894657
C 2.101018876 1.1104058257 -1.6721296099
O 1.5123730139 1.2377049355 -0.3518254528
P 1.7241076265 0.1606900234 0.7758412971
S 1.1161713218 0.7189244363 2.5473509424
O 3.2941259638 -0.0856344749 0.6818026647
C 3.9609817165 -0.9807804864 1.5933279011
C 5.4543669381 -0.7921860751 1.4202227315
S 0.9814452948 -1.716773355 0.0728279884
C -0.4102651626 -1.9659520225 1.2056480981
S -2.0327461689 -1.9225077835 0.3964492089
P -1.9174906286 -0.0525931558 -0.6081203305
S -1.1040594247 -0.0428514891 -2.3947880906
O -1.2218901259 0.8360546305 0.5091680106
C -1.6297557352 2.1872166629 0.8256488427
C -1.3241914719 3.1443893288 -0.3059990492
O -3.4116271832 0.4824467661 -0.5925304613
C -4.3376318252 0.1592328807 -1.6447476361
C -4.7635557188 -1.2927734014 -1.5874927758
H 4.1111276968 1.5838109898 -1.0836580039
H 3.7385163349 1.8818888036 -2.791155215
H 3.1352272583 2.9852012526 -1.5432561943
H 2.3032563828 0.0547430626 -1.8718896435
H 1.3249673929 1.4565754725 -2.358321043
H 3.6401799614 -0.7400682715 2.6121958286
H 3.6566996313 -2.0039063906 1.3544776797
H 5.7311807448 0.2322352752 1.6528471494
H 5.9769457079 -1.4651756229 2.0918011619
H 5.7407635465 -1.0126178842 0.3959368735
H -0.3598788014 -1.204609803 1.9890601854
H -0.3244968472 -2.9668396309 1.622195593
H -2.694817285 2.1764670329 1.0625489883
H -1.0501445488 2.421718365 1.7210162346
H -1.8671597309 2.8483045452 -1.2031051891
H -1.6241292231 4.1473029287 -0.0191421467
H -0.258784743 3.133722403 -0.5237726338
H -5.1762062277 0.8354969078 -1.4745967929
H -3.8627302474 0.3849636551 -2.6054980248
H -5.5207292193 -1.4768539788 -2.3427360777
H -3.9061114753 -1.9375877409 -1.7805254303
H -5.1634165055 -1.5326891044 -0.6058507421
*
