! pbe def2-sv(p) def2/J RI DEFGRID1 loosescf d4 GCP(DFT/SV(P)) printgap
%output
    printlevel normal
end
* xyz 0 1
C 2.8397699795 1.7757604306 -2.1344666551
C 3.1585603582 0.2958829153 -2.1230410666
O 2.2900089868 -0.4527721433 -1.247724338
P 2.1208277197 -0.2150254173 0.307698932
S 1.0769374301 1.3321222595 0.9349891274
O 3.6284371982 -0.1978049918 0.8068455106
C 3.9950422282 0.2551507525 2.1216935071
C 3.5290895867 -0.7051810703 3.1960348366
S 1.407474034 -2.126107812 0.8403559905
C -0.201931564 -2.1093446926 0.0014710259
S -1.4697527973 -1.1282696442 0.8556652592
P -1.8717814263 0.3914712069 -0.5932003806
S -0.7741343476 0.3036647887 -2.2123122619
O -1.8636122214 1.8138191685 0.0665219481
C -2.8333985985 2.3193297062 1.0178216619
C -2.8186404724 1.5468636378 2.3189231934
O -3.4318796538 0.1949947212 -0.8669968777
C -3.9279972495 -0.9782726588 -1.5377546187
C -5.3968388559 -0.7568544346 -1.8367406132
H 3.0299210441 2.2120743136 -1.1544671609
H 3.4591320654 2.2740178823 -2.8733275844
H 1.7910000777 1.9287226109 -2.3834136242
H 4.189622877 0.1175135742 -1.8094039495
H 2.9768061016 -0.1550383225 -3.10018298
H 5.082832408 0.323907471 2.0815292355
H 3.5612447628 1.2482186154 2.2783038612
H 3.8767776988 -1.7121063575 2.9801803836
H 3.9160360603 -0.3853691514 4.1580920883
H 2.4403989918 -0.7131535814 3.2369417897
H -0.5344974224 -3.1437968631 -0.0029119006
H -0.0808009638 -1.7203305977 -1.0132302487
H -2.5139515282 3.3525710396 1.1623776239
H -3.8182610642 2.2906027105 0.5480782918
H -1.8056239067 1.5035438279 2.7131860886
H -3.4618120205 2.0460677049 3.0367401194
H -3.1787606569 0.5307272215 2.1641607218
H -3.3480805186 -1.1250979327 -2.4550945746
H -3.7801504234 -1.8386638468 -0.8782378017
H -5.5201153047 0.113463015 -2.4750820104
H -5.7916276527 -1.6314448811 -2.3429781557
H -5.9446497458 -0.5975336258 -0.912684494
*
