  29
        -53.55967385
 C         -2.9707379160        0.6317535288       -1.9913167537
 C         -3.3734603230       -0.2302841683       -0.8005618849
 C         -2.6421585182        0.1776589879        0.4882408526
 H         -2.8456510829        1.2344415494        0.6752636055
 C         -3.1503097397       -0.6328155522        1.6826566420
 C         -1.1537621811        0.0128870252        0.3158547008
 C         -0.5822355489       -1.2304469101        0.1996723522
 C          0.8006939081       -1.3788509502        0.0245132030
 C          1.6248949258       -0.2747849517       -0.0370390088
 C          1.0673553273        0.9976844356        0.0740333553
 C         -0.3316376797        1.1716519422        0.2503783241
 O         -0.9156455922        2.3415151592        0.3549468962
 N          1.9535650681        2.1026725483        0.0017923321
 O          3.1426020756        1.8960230083       -0.1458431279
 O          1.4870920334        3.2364845543        0.0924382155
 N          1.3593138080       -2.6840172756       -0.0922083809
 O          2.5656896903       -2.7864075492       -0.2412020730
 O          0.6053203321       -3.6403854880       -0.0388794476
 H         -1.9208845401        0.4875624292       -2.2382997134
 H         -3.5631861104        0.3690239269       -2.8638754167
 H         -3.1308874466        1.6846743291       -1.7721483599
 H         -4.4457951221       -0.1291760354       -0.6298645165
 H         -3.1668907857       -1.2784264803       -1.0219144732
 H         -2.5940185888       -0.3774102716        2.5806195876
 H         -4.1998925918       -0.4111626082        1.8533635268
 H         -3.0532170011       -1.6999807538        1.5059804379
 H         -1.1875118563       -2.1226107796        0.2388577996
 H          2.6908464508       -0.3854492711       -0.1715584653
 H         -0.2693765187        3.0874334451        0.2993987837
  29
        -53.55953806
 C         -3.0340707701        0.2302327045       -2.0735156865
 C         -3.4184822216       -0.3872546791       -0.7339106253
 C         -2.6428110637        0.2359186650        0.4349543674
 H         -2.8547407225        1.3073890973        0.4509056878
 C         -3.0874176992       -0.3659022765        1.7714187889
 C         -1.1556919689        0.0563244007        0.2631990209
 C         -0.5983549560       -1.1924157439        0.1346570188
 C          0.7852258026       -1.3563402860       -0.0184669405
 C          1.6258671393       -0.2630451639       -0.0356551144
 C          1.0841673851        1.0138820657        0.0988554881
 C         -0.3158535138        1.2036950551        0.2484639107
 O         -0.8851738081        2.3789195653        0.3749684250
 N          1.9878627886        2.1070667361        0.0805776047
 O          3.1769078932        1.8867528932       -0.0448800612
 O          1.5357489840        3.2446157833        0.1938136114
 N          1.3276341933       -2.6661616871       -0.1585528998
 O          2.5343411531       -2.7817256396       -0.2939246584
 O          0.5599570894       -3.6128164343       -0.1379137563
 H         -3.6478755329       -0.1837481167       -2.8692556196
 H         -3.1799493962        1.3076475440       -2.0535139988
 H         -1.9911345019        0.0288245744       -2.3088951518
 H         -4.4828245687       -0.2275786990       -0.5571595351
 H         -3.2463281036       -1.4635282525       -0.7650784305
 H         -2.5412537873        0.0894313823        2.5933985695
 H         -4.1479810581       -0.1854956972        1.9207658690
 H         -2.9138545183       -1.4381441779        1.7915949655
 H         -1.2163299635       -2.0768060631        0.1448597262
 H          2.6927046108       -0.3857824672       -0.1513946480
 H         -0.2272788300        3.1164138267        0.3534521953
  29
        -53.55943795
 C         -3.0572386124        0.0751905032       -2.0876685223
 C         -3.4363203122       -0.4371993915       -0.7029588971
 C         -2.6425068285        0.2586388669        0.4105582633
 H         -2.8550222639        1.3290981724        0.3616312690
 C         -3.0661209472       -0.2567096804        1.7899516576
 C         -1.1562075653        0.0704031679        0.2409284681
 C         -0.6033250961       -1.1797604087        0.1073711280
 C          0.7808324560       -1.3486828101       -0.0352585921
 C          1.6267504306       -0.2593685750       -0.0350688596
 C          1.0899153785        1.0186955176        0.1079305980
 C         -0.3103731870        1.2135283801        0.2474158589
 O         -0.8751645291        2.3898713652        0.3840879195
 N          1.9988457793        2.1076667106        0.1092771561
 O          3.1877440764        1.8831632576       -0.0099218571
 O          1.5512366451        3.2459661303        0.2325109595
 N          1.3183088745       -2.6597282906       -0.1827632182
 O          2.5256698935       -2.7798085167       -0.3080867783
 O          0.5460233201       -3.6028471670       -0.1783013050
 H         -2.0193245666       -0.1563388804       -2.3170786042
 H         -3.6840131579       -0.3879731801       -2.8452673093
 H         -3.1897428706        1.1529686535       -2.1456638339
 H         -4.4964718338       -0.2487975191       -0.5288674778
 H         -3.2824354113       -1.5155854310       -0.6572546504
 H         -2.8755698572       -1.3227445912        1.8787181664
 H         -2.5182046226        0.2603427735        2.5733638197
 H         -4.1275907688       -0.0812648868        1.9384439427
 H         -1.2250814124       -2.0615141908        0.1051891899
 H          2.6939493790       -0.3860827399       -0.1428735052
 H         -0.2136539798        3.1244030763        0.3766010872
  29
        -53.55870527
 C         -3.0609277209       -0.1802878838        2.0343870352
 C         -3.3547899596        0.5473731386        0.7274394994
 C         -2.6587694858       -0.1123514066       -0.4728425926
 H         -3.0067505347       -1.1477010726       -0.5308287110
 C         -3.0347140195        0.5886397446       -1.7820513264
 C         -1.1615130828       -0.1577403150       -0.2947157146
 C         -0.5182658460       -1.3706151321       -0.2379406558
 C          0.8719283510       -1.4564390502       -0.0740435751
 C          1.6356630556       -0.3143137002        0.0355521600
 C          1.0088385455        0.9291866326       -0.0195679728
 C         -0.3993421260        1.0401145734       -0.1860521825
 O         -1.0299597380        2.1864211339       -0.2426634793
 N          1.8387628054        2.0734880635        0.0972362838
 O          3.0371021348        1.9206540351        0.2351041346
 O          1.3176565429        3.1865796387        0.0549566783
 N          1.4987072224       -2.7339282017       -0.0193062310
 O          2.7089639728       -2.7788330825        0.1276767650
 O          0.7971198718       -3.7255781126       -0.1218590704
 H         -2.0003629311       -0.1427368374        2.2740073141
 H         -3.6109238516        0.2788421575        2.8516708413
 H         -3.3578038655       -1.2245016049        1.9679730459
 H         -4.4294688747        0.5310524361        0.5416812301
 H         -3.0469986512        1.5889529836        0.8069840984
 H         -2.7791137218        1.6425956253       -1.7461406718
 H         -2.5171595515        0.1276489787       -2.6195546308
 H         -4.1045926640        0.4992551933       -1.9467344522
 H         -1.0766689238       -2.2911330135       -0.3173834836
 H          2.7065892969       -0.3726162388        0.1629493843
 H         -0.4152705612        2.9567291076       -0.1567574096
  29
        -53.55834063
 C         -3.1048528469       -0.3437568536       -1.8526298821
 C         -3.2666319409        0.6825327719       -0.7374417078
 C         -2.6070238771        0.2763191497        0.5981930008
 H         -2.7077187853        1.1355893535        1.2692300969
 C         -3.3117936243       -0.9129771656        1.2445476868
 C         -1.1323408390        0.0542998414        0.3891616995
 C         -0.5755298864       -1.1933892791        0.2521333270
 C          0.8008505404       -1.3506892869        0.0297180879
 C          1.6338441259       -0.2552814647       -0.0520229460
 C          1.0921187673        1.0218590908        0.0869555284
 C         -0.2984594911        1.2049875447        0.3047497271
 O         -0.8722719954        2.3772578946        0.4395334493
 N          1.9847674284        2.1197750427        0.0005664058
 O          3.1660971100        1.9057617588       -0.1924316144
 O          1.5315341116        3.2560243428        0.1250787182
 N          1.3434882786       -2.6601296059       -0.1129164209
 O          2.5439686892       -2.7721056479       -0.2997266831
 O          0.5834732863       -3.6104339625       -0.0423699696
 H         -3.5753971359        0.0262065795       -2.7601949141
 H         -2.0547111016       -0.5297906090       -2.0667525934
 H         -3.5763722788       -1.2872400880       -1.5936692878
 H         -2.8382958597        1.6319061995       -1.0616812653
 H         -4.3285370888        0.8448372749       -0.5503579296
 H         -4.3309642142       -0.6320029922        1.4952949845
 H         -3.3544548225       -1.7699026199        0.5802012289
 H         -2.8020976352       -1.2054249143        2.1587946506
 H         -1.1823740719       -2.0824449663        0.3112036973
 H          2.6938080922       -0.3749997452       -0.2209824577
 H         -0.2217122459        3.1194773217        0.3842033356
  29
        -53.55829473
 C         -4.5505887638        0.7375278029       -1.1826672737
 C         -3.0797256770        0.3421706339       -1.1415605073
 C         -2.5490609890        0.1760404877        0.2960456404
 H         -2.7327694292        1.1133324341        0.8292316551
 C         -3.2539205681       -0.9579952965        1.0366792283
 C         -1.0565804928       -0.0198336920        0.2255455397
 C         -0.4737891901       -1.2624669941        0.1898903175
 C          0.9185689604       -1.4051876018        0.0949753390
 C          1.7402952053       -0.2995609844        0.0389267131
 C          1.1709691384        0.9726595017        0.0693258850
 C         -0.2357758171        1.1407980318        0.1545371335
 O         -0.8367291088        2.3069097398        0.1751438960
 N          2.0526013092        2.0816170988        0.0100064550
 O          3.2495598232        1.8803261761       -0.0602698135
 O          1.5736042677        3.2137038360        0.0326093309
 N          1.4898689132       -2.7097743357        0.0586336943
 O          2.7034234675       -2.8085168059       -0.0167810845
 O          0.7396532794       -3.6693556301        0.1039498235
 H         -5.1809109445       -0.0516838665       -0.7839050388
 H         -4.7176636185        1.6433012175       -0.6051043634
 H         -4.8538789012        0.9257936629       -2.2095512425
 H         -2.9343214173       -0.5941142006       -1.6837759620
 H         -2.4944715000        1.1152894198       -1.6426612315
 H         -4.2678727310       -0.6606931945        1.2851183136
 H         -3.3045960700       -1.8561730004        0.4272907342
 H         -2.7334156266       -1.1886431187        1.9624954827
 H         -1.0726422672       -2.1579471963        0.2356602525
 H          2.8127379045       -0.4078084017       -0.0291238900
 H         -0.1956429698        3.0583267142        0.1370453080
  29
        -53.55802364
 C         -4.6807552567       -0.1702145511       -1.2889413132
 C         -3.2936333817       -0.6764770731       -0.9075132305
 C         -2.5388277851        0.3274321597       -0.0266601418
 H         -2.7144422820        1.3327743008       -0.4196070954
 C         -3.0304250491        0.2899097133        1.4258782442
 C         -1.0503860001        0.0910651420       -0.0236204556
 C         -0.5047857602       -1.1659631884       -0.1097764729
 C          0.8847418744       -1.3547854261       -0.0712127221
 C          1.7402622358       -0.2807417576        0.0536170195
 C          1.2088719598        1.0043740190        0.1498624252
 C         -0.1942002180        1.2184163143        0.1212689893
 O         -0.7595617454        2.3980586849        0.2199037438
 N          2.1250274012        2.0791182399        0.2791151242
 O          3.3168227679        1.8394505977        0.2941478838
 O          1.6799348368        3.2214092212        0.3710851942
 N          1.4174940243       -2.6729149721       -0.1626345180
 O          2.6291494241       -2.8108796522       -0.1333759124
 O          0.6377871347       -3.6041468386       -0.2656453701
 H         -4.6104814839        0.7715227965       -1.8280742719
 H         -5.1787878951       -0.8936507147       -1.9294893541
 H         -5.2989758970       -0.0176319427       -0.4086966070
 H         -3.3951410396       -1.6279766251       -0.3842656916
 H         -2.7217614863       -0.8499244875       -1.8211650126
 H         -2.8393868080       -0.6866952206        1.8638809762
 H         -2.5209197904        1.0450646210        2.0183337952
 H         -4.0966025804        0.4882534167        1.4651591907
 H         -1.1326970761       -2.0370626878       -0.2086492585
 H          2.8104660810       -0.4239954690        0.0799932413
 H         -0.0950508506        3.1247307056        0.3061390771
  29
        -53.55785855
 C         -4.6310191516        0.1923015861       -1.3047362512
 C         -3.1678403403       -0.2094551277       -1.1616894277
 C         -2.5506205067        0.2716229656        0.1627197265
 H         -2.7497899498        1.3411037205        0.2622902349
 C         -3.1462095529       -0.4481655811        1.3749935229
 C         -1.0555855211        0.0754295464        0.1238139227
 C         -0.5046496702       -1.1810142886        0.0539916281
 C          0.8846269897       -1.3617784993        0.0131307053
 C          1.7368984989       -0.2779255291        0.0456084518
 C          1.2013154499        1.0066938624        0.1154725378
 C         -0.2037253942        1.2134717425        0.1523112228
 O         -0.7674659727        2.3969743188        0.2120134285
 N          2.1163417097        2.0903179391        0.1474162517
 O          3.3086503456        1.8558846424        0.1128257373
 O          1.6699849880        3.2340166445        0.2096442949
 N          1.4212326206       -2.6796417031       -0.0615526674
 O          2.6334079590       -2.8099321610       -0.0950374520
 O          0.6433735620       -3.6175411786       -0.0899910855
 H         -5.0010604746       -0.0969086609       -2.2852039566
 H         -5.2467596698       -0.2956098423       -0.5548995015
 H         -4.7438608123        1.2686817829       -1.2004593659
 H         -3.0807912163       -1.2943186311       -1.2331981031
 H         -2.6002327493        0.2256839670       -1.9871017546
 H         -3.0748347210       -1.5264517605        1.2649553347
 H         -2.6203487625       -0.1564981387        2.2805505166
 H         -4.1918697084       -0.1815661791        1.4899277878
 H         -1.1319323604       -2.0582373446        0.0296413784
 H          2.8080637895       -0.4137912007        0.0172236367
 H         -0.1008312351        3.1268143980        0.2331119659
  29
        -53.55742827
 C         -4.7172740283        0.2546396026        0.8817316767
 C         -3.2214970164        0.5396004766        0.8167302511
 C         -2.5513269415       -0.1433758357       -0.3882212576
 H         -2.9036137230       -1.1782502550       -0.4230535147
 C         -2.9174330618        0.5280220139       -1.7151372191
 C         -1.0530137265       -0.1905391818       -0.2134360320
 C         -0.4083481351       -1.4022154474       -0.1529766069
 C          0.9826312193       -1.4845532072        0.0079538825
 C          1.7445992430       -0.3405890657        0.1105546760
 C          1.1155094824        0.9016392866        0.0523824320
 C         -0.2930627050        1.0090467729       -0.1101538308
 O         -0.9276330415        2.1528112936       -0.1700034289
 N          1.9434254485        2.0482750989        0.1629145899
 O          3.1420156376        1.8983674815        0.3007053412
 O          1.4198007036        3.1597911392        0.1158849634
 N          1.6120221491       -2.7606814439        0.0653041675
 O          2.8229951361       -2.8028559866        0.2062321592
 O          0.9116255546       -3.7540029527       -0.0291572850
 H         -4.9042061043       -0.8161587057        0.9202195433
 H         -5.1424641079        0.7070212446        1.7740574984
 H         -5.2319381665        0.6646844392        0.0176575320
 H         -3.0600690704        1.6155056330        0.7650374198
 H         -2.7526614001        0.1692101739        1.7313140430
 H         -2.3764497294        0.0589796122       -2.5334454359
 H         -3.9805332600        0.4176622323       -1.9035678320
 H         -2.6764751616        1.5859912307       -1.6940398785
 H         -0.9651222659       -2.3240532664       -0.2293184875
 H          2.8160725635       -0.3965731757        0.2345728652
 H         -0.3151787441        2.9254732591       -0.0883898399
  29
        -53.55481129
 C         -3.8792262338       -1.7112255332       -0.1080230914
 C         -3.4092784284       -0.5358304610       -0.9636137329
 C         -2.5695778796        0.5270678738       -0.2365772551
 H         -2.6521046383        1.4572202955       -0.8092328249
 C         -3.0984604678        0.8173790660        1.1749073791
 C         -1.0957606690        0.2123588546       -0.1612806608
 C         -0.5743387307       -1.0489670069       -0.3061466180
 C          0.8063297023       -1.2808123632       -0.2063062095
 C          1.6836877349       -0.2446079100        0.0293361532
 C          1.1820526833        1.0492565472        0.1626111834
 C         -0.2109225312        1.3054663846        0.0714197250
 O         -0.7424337156        2.4999843140        0.1775855905
 N          2.1192154017        2.0886187612        0.3895861653
 O          3.2998957603        1.8101419212        0.4726260227
 O          1.7044214816        3.2414578780        0.4946148113
 N          1.3049791813       -2.6071200381       -0.3513998460
 O          2.5096638522       -2.7844028747       -0.2754037730
 O          0.5049409953       -3.5065778393       -0.5441909140
 H         -3.0635495015       -2.1886341420        0.4270022745
 H         -4.6165847195       -1.3876242288        0.6208014119
 H         -4.3466864277       -2.4577143136       -0.7461569866
 H         -2.8421129701       -0.9061787889       -1.8194045843
 H         -4.2978057701       -0.0405942772       -1.3593957670
 H         -2.5972130416        1.6836827337        1.5957988984
 H         -4.1625183792        1.0286468877        1.1279851056
 H         -2.9352031128       -0.0327519075        1.8304731086
 H         -1.2078227663       -1.8972856359       -0.5065485874
 H          2.7461467454       -0.4219673828        0.1068411472
 H         -0.0596243639        3.2012774000        0.3173124934
  29
        -53.55447352
 C         -3.0050000502        0.8619751214        1.7744732297
 C         -3.3543350250       -0.2914743658        0.8425007864
 C         -2.6493121567       -0.2575927604       -0.5303924520
 H         -2.8707682449       -1.2167058095       -1.0098100579
 C         -3.2122956270        0.8324318741       -1.4427072994
 C         -1.1497492004       -0.2217257606       -0.3477199057
 C         -0.4834566847       -1.4222723995       -0.2656543697
 C          0.9029424532       -1.4873975986       -0.0711988023
 C          1.6476336432       -0.3322310939        0.0333617609
 C          1.0007986050        0.8989544971       -0.0447067740
 C         -0.4100408898        0.9894136841       -0.2244671284
 O         -1.0477685639        2.1296107843       -0.2788643673
 N          1.8145116697        2.0552685771        0.0684744393
 O          3.0125621248        1.9187038470        0.2275319737
 O          1.2832695127        3.1624790242        0.0008360388
 N          1.5463609684       -2.7544497100        0.0100819103
 O          2.7553661995       -2.7803226299        0.1723187528
 O          0.8598625005       -3.7576818280       -0.0850644111
 H         -1.9604071409        0.8177455956        2.0747008127
 H         -3.1911743734        1.8212773983        1.3018300174
 H         -3.6143089544        0.8015294793        2.6730219834
 H         -3.0997108120       -1.2307791368        1.3379559754
 H         -4.4295415239       -0.2915356134        0.6597464484
 H         -4.2348218790        0.5757945210       -1.7072124609
 H         -3.2162970184        1.8048452073       -0.9651886324
 H         -2.6292515300        0.8972005529       -2.3576870060
 H         -1.0244714822       -2.3527734737       -0.3524823401
 H          2.7176740533       -0.3717742467        0.1741222948
 H         -0.4374608588        2.9050640234       -0.2090425581
