  29
        -53.55967385
 C         -2.9707379160        0.6317535288       -1.9913167537
 C         -3.3734603230       -0.2302841683       -0.8005618849
 C         -2.6421585182        0.1776589879        0.4882408526
 H         -2.8456510829        1.2344415494        0.6752636055
 C         -3.1503097397       -0.6328155522        1.6826566420
 C         -1.1537621811        0.0128870252        0.3158547008
 C         -0.5822355489       -1.2304469101        0.1996723522
 C          0.8006939081       -1.3788509502        0.0245132030
 C          1.6248949258       -0.2747849517       -0.0370390088
 C          1.0673553273        0.9976844356        0.0740333553
 C         -0.3316376797        1.1716519422        0.2503783241
 O         -0.9156455922        2.3415151592        0.3549468962
 N          1.9535650681        2.1026725483        0.0017923321
 O          3.1426020756        1.8960230083       -0.1458431279
 O          1.4870920334        3.2364845543        0.0924382155
 N          1.3593138080       -2.6840172756       -0.0922083809
 O          2.5656896903       -2.7864075492       -0.2412020730
 O          0.6053203321       -3.6403854880       -0.0388794476
 H         -1.9208845401        0.4875624292       -2.2382997134
 H         -3.5631861104        0.3690239269       -2.8638754167
 H         -3.1308874466        1.6846743291       -1.7721483599
 H         -4.4457951221       -0.1291760354       -0.6298645165
 H         -3.1668907857       -1.2784264803       -1.0219144732
 H         -2.5940185888       -0.3774102716        2.5806195876
 H         -4.1998925918       -0.4111626082        1.8533635268
 H         -3.0532170011       -1.6999807538        1.5059804379
 H         -1.1875118563       -2.1226107796        0.2388577996
 H          2.6908464508       -0.3854492711       -0.1715584653
 H         -0.2693765187        3.0874334451        0.2993987837
