! pbe def2-sv(p) def2/J RI DEFGRID1 loosescf d4 GCP(DFT/SV(P)) printgap
%output
    printlevel normal
end
* xyz 0 1
C 3.2631064844 -1.6538821954 1.6659940111
C 3.0835840188 -2.2209780751 0.2679817488
O 2.7935543982 -1.1684226094 -0.6730698944
C 1.5675889973 -1.012989877 -1.1211555557
O 0.6176534576 -1.695704188 -0.7861126744
C 1.4861670723 0.1044809076 -2.1395290933
C 0.2844109054 1.02002112 -1.8995840504
H 0.2065020161 1.7333704791 -2.7247818199
C 0.3883989675 1.7981314121 -0.6016926667
O -0.529606869 1.8403730416 0.1983650506
O 1.5327333517 2.4007578197 -0.4690992894
C 1.797050841 3.1402884731 0.7459174658
C 2.3904052229 2.2258021247 1.8036526326
S -1.3201722751 0.1443011099 -1.8870343172
P -1.5779637008 -0.3956101204 0.1480498534
S -0.3928624152 -0.5817951884 1.7169876538
O -2.9374325836 0.3589964716 0.5638442661
C -3.0387593932 1.4634223455 1.4577967361
O -2.2264317583 -1.7959762674 -0.2842565752
C -2.7100883859 -2.7346049377 0.6761793565
H 4.0372858244 -0.8924803397 1.6662012485
H 2.3300694811 -1.2169722788 2.0176353248
H 3.5473246028 -2.454416457 2.3406093252
H 2.2658821277 -2.9466498717 0.2442985926
H 4.0064173162 -2.675424626 -0.096220624
H 1.3733502971 -0.3588495573 -3.1214156397
H 2.4090496944 0.6834912449 -2.1073863785
H 2.5043941564 3.9105259578 0.4391934955
H 0.8636881296 3.5880736126 1.0952561693
H 1.6801953179 1.4445256041 2.0712989243
H 3.2986604131 1.7609400859 1.430933001
H 2.6214635356 2.8047589774 2.6912259341
H -2.2664895847 1.3947173403 2.2262227421
H -4.0288856731 1.3966549196 1.9030236476
H -2.9229340662 2.3939662139 0.9052606363
H -2.8310361368 -3.671175563 0.1376007954
H -3.6639186947 -2.3956675337 1.0816325342
H -1.9858513898 -2.8529484593 1.4855842186
*
