! pbe def2-sv(p) def2/J RI DEFGRID1 loosescf d4 GCP(DFT/SV(P)) printgap
%output
    printlevel normal
end
* xyz 0 1
C 1.6254111206 1.3986835156 -1.8911933316
C 2.1867684881 1.9921957615 -0.61614716
O 1.7072689451 1.3091874949 0.5693890179
P 2.1289385604 -0.1340934937 1.0430322081
S 1.8780513302 -0.3779099042 2.9683535815
O 3.623579341 -0.2363429582 0.520331412
C 4.4428511797 -1.3810530574 0.8403866622
C 5.8815423049 -1.0222982465 0.5295657094
S 1.119262757 -1.5897433751 -0.1530193573
C -0.367530469 -1.7109090198 0.8734013067
S -1.2073734705 -0.1209315879 1.0924539228
P -2.1713736782 -0.0060564003 -0.7978072493
S -1.5672538297 -1.1080355338 -2.2892892118
O -2.12874161 1.5376668467 -1.1687848878
C -2.5324695734 2.5726240228 -0.2399926094
C -1.3259570939 3.3803095794 0.1952927482
O -3.6539446002 -0.3285718083 -0.285770711
C -4.6828805081 -0.7800583975 -1.186432059
C -5.1612004121 0.3366256731 -2.092355162
H 0.5382700206 1.3505183909 -1.8488227987
H 1.9153187878 2.0220451203 -2.7312428904
H 2.0082294451 0.3925099138 -2.0505285428
H 1.8444045423 3.0173487051 -0.4658113392
H 3.2770697117 1.9589021148 -0.6163316191
H 4.3062501186 -1.6199028537 1.9000917804
H 4.0997503502 -2.2247457655 0.2356894005
H 6.1931986116 -0.1734807183 1.1317021627
H 6.5156729909 -1.8731755593 0.7554228027
H 5.9831827605 -0.7675617397 -0.5213454579
H -0.0867780637 -2.0404163917 1.873272031
H -1.0265545444 -2.4245451594 0.3840097328
H -3.2417231182 3.1919011478 -0.7923415954
H -3.0317974226 2.1118982454 0.6168103074
H -1.6531606802 4.1846356024 0.8465127724
H -0.6220755118 2.7522472295 0.7378946314
H -0.8303261469 3.8014808029 -0.6750998743
H -4.2863782249 -1.6110310968 -1.77826732
H -5.4749300516 -1.1372282092 -0.5269065904
H -5.5201083856 1.1758878751 -1.5021170702
H -4.3410663532 0.6715147068 -2.7269206258
H -5.9661709125 -0.0304861515 -2.7212350586
*
