! pbe def2-sv(p) def2/J RI DEFGRID1 loosescf d4 GCP(DFT/SV(P)) printgap
%output
    printlevel normal
end
* xyz 0 1
C 5.2072680918 -1.1637539303 -1.9241287413
C 4.9559963555 -0.3294118429 -0.6837845979
O 3.6915035533 -0.6923510741 -0.0822334942
P 2.3802740537 0.1628249752 -0.3169145827
S 1.9790242723 0.6420647943 -2.1799881631
O 2.6769339302 1.4047282266 0.6340108225
C 1.8756257512 2.5971849703 0.6915521411
C 0.9753233273 2.5756546153 1.9105586822
S 1.0416175597 -1.0923643802 0.7059845036
C 0.0673519721 -1.6974558262 -0.7226088395
S -1.6487638368 -1.9874723903 -0.2759557737
P -2.1547853447 0.019800286 0.2568943078
S -1.3188769565 1.4451325057 -0.7926750114
O -1.7693884754 0.2002570436 1.7740766646
C -2.240122395 -0.6734628848 2.8304638289
C -3.3847990391 -0.0243468213 3.5809527705
O -3.7403675909 -0.0354005079 0.3225438339
C -4.5985748204 -0.5673197093 -0.7045649951
C -4.3398768599 0.0497825936 -2.0627036875
H 4.454365041 -0.9471763758 -2.679126991
H 6.1883382601 -0.926743493 -2.3230516585
H 5.1631769185 -2.2203916307 -1.6761973034
H 4.9506095626 0.7378724532 -0.9204200704
H 5.6980941312 -0.5288832494 0.0909664375
H 2.5952573153 3.4164336948 0.7467174737
H 1.2914452327 2.687795228 -0.2306663634
H 0.467721508 3.5314330814 1.9919012146
H 0.2261141867 1.7916616983 1.8172572622
H 1.5652127361 2.3974738736 2.8052091223
H 0.4651033091 -2.6541954417 -1.0516894974
H 0.1247306387 -0.947579897 -1.517408025
H -2.5409665557 -1.6298560435 2.3941796826
H -1.3701600725 -0.8223109988 3.4728090024
H -3.0709660764 0.9353431996 3.9818684038
H -4.2285435666 0.1346172382 2.9147526374
H -3.6874705286 -0.6729571966 4.3969208145
H -4.4562005972 -1.6507834658 -0.7386587772
H -5.6028613344 -0.3337883819 -0.3467690451
H -4.4178142845 1.1333318786 -2.0095523203
H -3.3381640063 -0.2042732222 -2.4073930867
H -5.0646224109 -0.328592356 -2.7763122199
*
