  17
        -25.24750226
 C         -1.0849743217       -1.8946133264        0.0000248151
 C         -0.0104488593       -0.8617767317        0.0000239761
 C          1.3253191617       -1.2462261012       -0.0000070268
 C          2.3467714031       -0.3137772431        0.0000180766
 C          2.0534649033        1.0433740283       -0.0000183125
 C          0.7372463736        1.4497421525        0.0000155317
 C         -0.3070216380        0.5155731991       -0.0000113838
 C         -1.6665869883        1.0313980278       -0.0000325833
 O         -2.7025179940        0.3946524576        0.0000037266
 H         -1.7265906233       -1.7735379902        0.8716704894
 H         -1.7254942622       -1.7745372641       -0.8725656908
 H         -0.6601915926       -2.8943891512        0.0007991963
 H          1.5655327693       -2.2988419329       -0.0002187206
 H          3.3742669117       -0.6434540389       -0.0000925443
 H          2.8483069385        1.7723323862        0.0000428493
 H          0.4937736427        2.5020427098        0.0001989102
 H         -1.7129171001        2.1383729527       -0.0000496750
