  22
        -23.41660170
 C         -3.8229410456        0.3521442902        0.0016150632
 C         -2.5589420817       -0.4995310553       -0.0020462015
 C         -1.2957170714        0.3585377415       -0.0010811610
 C         -0.0246475516       -0.4879798168        0.0017663874
 C          1.2364332875        0.3715356738       -0.0007886475
 C          2.5135319698       -0.4797898290        0.0002322549
 N          3.7549375557        0.2798793980        0.0001868814
 H         -3.8515319315        0.9864589536        0.8847594202
 H         -3.8545440444        0.9901182498       -0.8787779044
 H         -4.7088174085       -0.2779754690        0.0018103819
 H         -2.5566776248       -1.1422621429       -0.8852174389
 H         -2.5545670208       -1.1469767830        0.8776776980
 H         -1.2983731182        1.0030604129       -0.8834774606
 H         -1.3009248059        1.0050281834        0.8798854025
 H         -0.0194394290       -1.1364292798       -0.8774180475
 H         -0.0197979592       -1.1308595491        0.8850567434
 H          1.2352287359        1.0151317080       -0.8852279423
 H          1.2362320952        1.0185037611        0.8811689484
 H          2.5219229864       -1.1243969960       -0.8831866890
 H          2.5213055695       -1.1232088312        0.8845377118
 H          3.7828922619        0.8823527456        0.8164310566
 H          3.7838306183        0.8809739330       -0.8170164348
