! pbe def2-sv(p) def2/J RI DEFGRID1 loosescf d4 GCP(DFT/SV(P)) printgap
%output
    printlevel normal
end
* xyz 0 1
C 1.4895647007 -3.5775503503 -0.395015223
C 2.5185565212 -2.5838156465 -0.894042638
O 1.8753445577 -1.3198655289 -1.2132669193
P 2.1483897398 0.0055100995 -0.4038314746
S 1.1696762858 1.5302705753 -1.143641027
O 3.7353265078 0.1028527908 -0.4829298083
C 4.4628312147 1.3172026618 -0.2290062772
C 4.332231332 1.7827733637 1.2068033133
S 1.7932707404 -0.4728948109 1.6400232853
C 0.043921143 -0.0485522547 1.7071110109
S -0.9611810176 -1.0891822394 0.5842566742
P -2.4458333812 0.3084619528 -0.0086753922
S -2.1236165242 2.1882153947 0.4653419689
O -3.8123789135 -0.2970463081 0.5155256473
C -4.4005103228 0.0855440082 1.7697129889
C -3.5693785 -0.3672072851 2.953941591
O -2.7414113567 -0.0175964485 -1.5284656698
C -1.9206712582 0.3886418063 -2.6368295812
C -1.0761182476 -0.7677294687 -3.1355821285
H 1.0461034418 -3.2350101454 0.5370909688
H 0.6972073748 -3.6976439672 -1.1283337796
H 1.9744232026 -4.5342365885 -0.229848342
H 2.971974168 -2.9136262013 -1.829772046
H 3.2979575161 -2.4093830271 -0.1495103031
H 5.492959394 1.0559557449 -0.475733372
H 4.0997275619 2.0865011177 -0.917562956
H 4.5777897988 0.9752751669 1.8919223744
H 5.0066469714 2.6165225433 1.3740885572
H 3.3128377376 2.1128958536 1.4015547052
H -0.1018149844 0.9972740422 1.421651474
H -0.2610332462 -0.2265765277 2.7354978036
H -4.5229050644 1.1732606511 1.7799455856
H -5.3784016109 -0.3976053971 1.7544698731
H -4.1236899375 -0.1913766995 3.8703351533
H -3.3371740896 -1.4259508201 2.869237188
H -2.6423470274 0.2039664221 2.9890999429
H -2.6297155007 0.7143410174 -3.400917552
H -1.2964185015 1.2390925544 -2.3425708194
H -1.7074853045 -1.6314498004 -3.3238101594
H -0.5803791768 -0.4712897097 -4.0545545625
H -0.3173231405 -1.0338923066 -2.4026311483
*
