! r2scan-3c def2/J RI DEFGRID2 scfconv6 printgap
%output
    printlevel normal
end
%cpcm
    smd true
    smdsolvent "water"
end
* xyz 0 1
C 5.0114201816 -1.2770055873 -1.5705416672
C 3.6051905044 -1.8200574359 -1.7368430968
O 2.8399852552 -1.6955016252 -0.5221344741
P 2.0593529511 -0.3801626035 -0.0989336328
S 3.1012608546 1.2449868888 0.26283127
O 1.2409729229 -0.9585942353 1.1236422634
C 1.4350743554 -0.514635397 2.4777399908
C 2.6269838088 -1.209701009 3.1017968881
S 0.6104885541 -0.2024908333 -1.6370305586
C 0.106434847 1.4954130509 -1.2661403512
S -0.6054537246 1.6843426454 0.3946593953
P -2.250610969 0.396049955 0.1164024089
S -3.0611992214 0.2943774293 -1.6687978384
O -3.2745454829 0.7947648312 1.2682898733
C -4.3091282469 1.7757468501 1.0767515114
C -3.7464046078 3.1745109893 0.9285793762
O -1.645094104 -0.938986245 0.7146745426
C -2.2292217397 -2.2399603692 0.4773506084
C -1.3704978969 -3.0248025406 -0.494724662
H 5.5129391847 -1.7813938433 -0.7491604131
H 5.5684912556 -1.4431009639 -2.4869620546
H 4.9851417196 -0.2102116031 -1.360119148
H 3.6163134936 -2.8939701806 -1.9330233466
H 3.0772666788 -1.3077193238 -2.5465570415
H 1.572063703 0.57223078 2.4811700372
H 0.5002728499 -0.7661311023 2.9811951555
H 3.5325189704 -0.9311900946 2.5642326102
H 2.7217755295 -0.9050182105 4.1391480853
H 2.5043086975 -2.2878899795 3.0478792529
H -0.6340777986 1.766311157 -2.0175604946
H 0.9737923674 2.1541428779 -1.3014900476
H -4.8876047626 1.4976705344 0.189860027
H -4.9280278919 1.6814302691 1.9699309944
H -3.1825819611 3.2525777356 -0.0001823557
H -4.56242016 3.8896181974 0.9058532454
H -3.0846590218 3.406128891 1.7594606078
H -2.2649196797 -2.7188155048 1.4572261625
H -3.2451962584 -2.1156860716 0.0911944782
H -1.3898666322 -2.556612518 -1.4769140405
H -0.3418919126 -3.0501480304 -0.142050552
H -1.7516016123 -4.0377572524 -0.5743489668
*
