! pbe def2-sv(p) def2/J RI DEFGRID1 loosescf d4 GCP(DFT/SV(P)) printgap
%output
    printlevel normal
end
* xyz 0 1
C 3.7187759845 -2.3787258949 -0.8782068499
C 3.8782841369 -1.4848333802 0.3365211402
O 3.3945902502 -0.1502679298 0.1159976211
P 1.8782752251 0.2708318299 -0.1510724237
S 1.2398399626 -0.0688699794 -1.9763199625
O 1.9540791766 1.7828782398 0.2934977073
C 1.9563676909 2.8739072588 -0.6433054427
C 3.3121280486 3.0194942126 -1.3015641332
S 0.8548267466 -0.4959928839 1.5469930876
C 0.1404767168 -2.0521652966 0.932704087
S -1.116874315 -1.8848637911 -0.382644045
P -2.0751694094 -0.1000195842 0.1807873177
S -1.2992297958 1.6931332887 -0.0791051653
O -2.4488871587 -0.4777161658 1.6675505845
C -2.717018912 0.4821650078 2.7140521708
C -2.021094902 0.0230248907 3.9794850784
O -3.4780694509 -0.2353748476 -0.5600904276
C -3.7084229242 0.2790208714 -1.8814697844
C -2.8985038506 -0.4627998934 -2.9256356187
H 2.6677317994 -2.4958387918 -1.1379534112
H 4.228410545 -1.9437867035 -1.7341526308
H 4.1447157239 -3.3538764367 -0.6646506325
H 4.9324475831 -1.3364457085 0.5789724935
H 3.361364606 -1.9006100505 1.2075592173
H 1.171421681 2.7032010178 -1.3879196713
H 1.6940399944 3.7438317555 -0.0396271347
H 3.3034958846 3.8828730123 -1.9590703677
H 4.082789264 3.1424833049 -0.5455059902
H 3.5313433089 2.1262881172 -1.8856618622
H -0.3253801869 -2.5076084021 1.8040833018
H 0.9115545189 -2.6995782624 0.5211318241
H -2.3560490738 1.4655311286 2.3930052773
H -3.8008204846 0.5191545806 2.8407753833
H -0.9449951501 -0.0093128797 3.8242536477
H -2.2463682169 0.7199116707 4.7801022697
H -2.3692782006 -0.9678019908 4.2557433328
H -4.7806610254 0.1473264859 -2.0317959605
H -3.4582168674 1.3452512599 -1.8862020415
H -3.0834178583 -1.5321602478 -2.8595323247
H -3.1699264588 -0.108268625 -3.9147300805
H -1.8330152756 -0.2841643018 -2.7714711839
*
