! r2scan-3c def2/J RI DEFGRID2 scfconv6 printgap
%output
    printlevel normal
end
%cpcm
    smd true
    smdsolvent "water"
end
* xyz 0 1
C 2.401076014 -2.8366692209 1.7344316097
C 1.5489767173 -1.975162841 0.8232986842
O 2.0010797363 -0.614901066 0.9214942938
P 2.3752750096 0.3163114317 -0.3161847114
S 2.9814892732 -0.6285212147 -1.9142761591
O 3.4824567159 1.2711124535 0.261983788
C 3.2948679901 2.2702217203 1.294086219
C 3.3847347393 1.6662794719 2.679629505
S 0.7015324439 1.6336378002 -0.5721371732
C -0.0434443065 0.7878233721 -1.9793246866
S -0.6987421918 -0.8518748549 -1.5560538891
P -2.1682012848 -0.1825148128 -0.1973672677
S -3.0842239791 1.4994032807 -0.6294224393
O -1.3786578877 -0.2364189633 1.1699912214
C -1.797140586 0.4923384728 2.349915044
C -0.5668469534 1.0617440414 3.0253287595
O -3.1306113429 -1.4374011183 -0.0427924193
C -4.1865708617 -1.7228307004 -0.9823239714
C -5.260052068 -2.5087564861 -0.2564262352
H 2.3454474211 -2.4737957747 2.7566908067
H 2.0400324578 -3.8592167974 1.6952254277
H 3.4370899647 -2.8109090115 1.4060473901
H 0.4980229103 -1.9872918449 1.1239153143
H 1.6297746444 -2.3072636745 -0.2173591196
H 4.1024070904 2.9819719794 1.1140427179
H 2.330979801 2.7610997612 1.132964244
H 2.5813581916 0.9516114455 2.8323395344
H 4.3368110199 1.1573985357 2.8024560486
H 3.3034663868 2.4588838788 3.416789961
H 0.7054849705 0.6271707443 -2.7543360014
H -0.85523594 1.4251022185 -2.3285796108
H -2.487854855 1.2861770483 2.0467607214
H -2.3192749343 -0.2177314086 2.9944345871
H -0.8633710798 1.5665761672 3.9388558983
H 0.1278652577 0.2613914374 3.2647217652
H -0.0754468632 1.7730162806 2.3658941963
H -4.5771739819 -0.7751777219 -1.3684363647
H -3.7572767284 -2.2979448151 -1.806506624
H -4.8368606738 -3.4202771642 0.1554071154
H -5.6756518727 -1.9150413653 0.5529454951
H -6.0495905822 -2.7621897562 -0.9561808045
*
