! pbe def2-sv(p) def2/J RI DEFGRID1 loosescf d4 GCP(DFT/SV(P)) printgap
%output
    printlevel normal
end
* xyz 0 1
C 1.9327397657 -3.5420348087 -2.3455669766
C 3.1705867819 -2.928165623 -1.7111218579
O 2.8906629927 -1.59852281 -1.2355618485
C 2.3508264334 -1.4606046055 -0.0417053769
O 2.1445544003 -2.3651033748 0.7350179282
C 2.0143531644 -0.0076066192 0.2490708243
C 1.113448389 0.5483958777 -0.8573942124
H 1.6835029957 0.6762407535 -1.7796983407
C 0.493025296 1.8619354153 -0.4279545775
O -0.7091714594 1.983678468 -0.2749400106
O 1.3757036032 2.7947083622 -0.2373545013
C 0.9311658829 4.0664526342 0.2915138834
C 0.8487997551 4.0096867124 1.807788487
S -0.2509545843 -0.5912813201 -1.2843282625
P -1.5827988179 -0.2519450128 0.317855429
S -1.0843790703 0.3364650723 2.1328847905
O -2.958402771 0.3514103845 -0.2282572796
C -3.4466179474 1.6739847959 -0.0039884749
O -1.9921600126 -1.8073875656 0.3075410692
C -2.9591852489 -2.3321322737 1.2193680312
H 2.1796090377 -4.5186431781 -2.748157483
H 1.14738369 -3.6527535656 -1.6007348016
H 1.562960132 -2.9026335293 -3.1422582255
H 3.9684502667 -2.7936925584 -2.4412431003
H 3.5174167626 -3.5357069836 -0.8703928751
H 2.9331213533 0.5786877027 0.2903921762
H 1.5147846638 0.0313202578 1.2195242777
H 1.6884057213 4.7746976645 -0.0430728398
H -0.041842607 4.3060613476 -0.1438152544
H 0.1394806293 3.2453303348 2.1217279225
H 1.8209959916 3.7741227514 2.2309612588
H 0.5176465626 4.9709323032 2.1859558425
H -3.067624665 2.0579801165 0.9440473671
H -4.5307773696 1.5893585915 0.0229528654
H -3.1272973123 2.3217567982 -0.8173573066
H -2.8578730758 -3.4131953125 1.1665602832
H -3.960686033 -2.0237832539 0.920552667
H -2.7492873529 -1.9813218191 2.2323609365
*
