! pbe def2-sv(p) def2/J RI DEFGRID1 loosescf d4 GCP(DFT/SV(P)) printgap
%output
    printlevel normal
end
* xyz 0 1
C 4.8401614398 1.6629447649 -0.2754774498
C 4.0289302849 1.3138926277 -1.5059047319
O 3.277025642 0.0941649147 -1.3586431933
P 2.3152960833 -0.2689573731 -0.1472128396
S 3.1631207045 -0.8677246574 1.5200921458
O 1.3991903701 -1.3586319013 -0.8338059672
C 1.5572626275 -2.783881687 -0.6693217173
C 0.259425597 -3.3827170197 -0.1664348688
S 1.0424386073 1.4076596711 -0.0168147522
C 0.3664767975 1.0568948175 1.6247490802
S -0.8422714065 -0.2994336135 1.647318408
P -2.1091954512 0.3064779232 0.0523350118
S -1.7140102552 -0.3016957087 -1.7735030225
O -2.1117633104 1.8680434551 0.307703782
C -2.4209889454 2.8084153807 -0.7422508979
C -3.8859432319 2.7585955467 -1.120598307
O -3.5627917589 -0.1090929426 0.548953947
C -4.133768394 -1.3977370284 0.2786090905
C -3.5582752076 -2.4602598118 1.1929374988
H 4.179189201 1.8804529699 0.5625357738
H 5.486118181 0.8330391481 0.0013991987
H 5.4478991809 2.5377637953 -0.4831637839
H 4.6715256181 1.1148073101 -2.3654907105
H 3.3259215361 2.1159827016 -1.7482295675
H 1.8192523151 -3.1715441211 -1.6555022784
H 2.3767271902 -2.9733709106 0.0320502124
H 0.3427003788 -4.464428952 -0.1619835058
H 0.0520447169 -3.0339054137 0.843188387
H -0.556423223 -3.0862335699 -0.821904114
H -0.1062509367 1.9710251214 1.973419344
H 1.1747737237 0.7445444557 2.2889159097
H -2.1410126048 3.7740218702 -0.3194385278
H -1.7870395065 2.5846229741 -1.6063761143
H -4.1179927856 1.7933821826 -1.5690420742
H -4.5062350278 2.8947190923 -0.2387532541
H -4.0992810207 3.5428703685 -1.8400267864
H -5.202911296 -1.258627096 0.4447314296
H -3.950162452 -1.6459039217 -0.7728057801
H -3.7079595484 -2.1838725555 2.2331057363
H -4.0440698624 -3.4104997913 0.9965664402
H -2.4886272241 -2.5638177979 1.0125568697
*
