! pbe def2-sv(p) def2/J RI DEFGRID1 loosescf d4 GCP(DFT/SV(P)) printgap
%output
    printlevel normal
end
* xyz 0 1
C 2.7247234767 1.2371090401 -3.0937782058
C 2.8918113426 1.2896639501 -1.5901468466
O 2.5395219205 -0.0041064907 -1.0566406718
P 2.163191226 -0.2388692733 0.4629819766
S 1.0974369849 1.2100473426 1.2562782108
O 3.6010923984 -0.4375015261 1.1126752811
C 3.8837212671 -1.1326768205 2.3428946188
C 2.9452543429 -0.7564048072 3.4699944512
S 1.4078471192 -2.2005681011 0.3669563037
C -0.1753900765 -1.891578405 -0.4549096267
S -1.4238862034 -1.1594611474 0.6508065293
P -2.1032063323 0.3829036175 -0.6568063159
S -0.797136551 1.0900984087 -1.9282569519
O -2.8843011576 1.3643203 0.3138023909
C -2.3233138342 2.1889626806 1.351081914
C -1.7784003001 3.4856993835 0.7886511365
O -3.2984050299 -0.2347387726 -1.4777412681
C -4.4571923536 -0.8676536663 -0.87690021
C -4.396614652 -2.3689367734 -1.0782399355
H 1.678012819 1.0800478351 -3.3438133836
H 3.0536380988 2.1789817345 -3.5199066925
H 3.3166740569 0.4245283637 -3.5044062087
H 2.2345398321 2.0437705318 -1.1441088098
H 3.9259021856 1.4974433737 -1.30503852
H 3.8310375118 -2.2052836698 2.1371960533
H 4.9131896694 -0.8482482696 2.5682570178
H 1.9262642036 -1.0563015816 3.2258832356
H 3.254049221 -1.2632220209 4.3785880653
H 2.9582349217 0.3187447012 3.6342098258
H -0.5262734096 -2.8664182928 -0.7832186037
H -0.0214874279 -1.2151676222 -1.3001297089
H -3.1630775459 2.3692195139 2.0247996849
H -1.5390775728 1.6371304143 1.8750379562
H -2.5453661539 4.0027318277 0.2181640681
H -1.4432974257 4.115302172 1.606207655
H -0.9301680628 3.282726757 0.1378396137
H -4.5003031048 -0.6077894296 0.1824262483
H -5.3110187478 -0.4308706452 -1.3969880009
H -3.5772034205 -2.7982969096 -0.5072340186
H -5.3300002043 -2.8081667422 -0.7408146129
H -4.2536623196 -2.5962977867 -2.1309938693
*
