  18
        -20.89186845
 C          0.5319929884        0.8894016652       -1.2592615932
 C          0.4079333292        0.0225424433       -0.0000033685
 C          0.5308268127        0.8936950179        1.2563853620
 C          1.5037829448       -1.0480751097        0.0023299580
 O         -0.8108927305       -0.7393347833        0.0005215042
 C         -2.0294808903       -0.0300418895        0.0000536174
 H          1.5388530234        1.2901554750       -1.3241194670
 H          0.3346939823        0.2875035983       -2.1433634637
 H         -0.1671325565        1.7217030282       -1.2356290755
 H          0.3341187459        0.2945646647        2.1424917772
 H         -0.1691490686        1.7251961105        1.2298459170
 H          1.5372712138        1.2956791030        1.3198820367
 H          1.4002952914       -1.6739033427        0.8842450444
 H          1.4006566541       -1.6773830001       -0.8771497902
 H          2.4856021918       -0.5860232184        0.0016300587
 H         -2.1399749027        0.5919928612       -0.8927896061
 H         -2.1409649439        0.5914013495        0.8931891110
 H         -2.8042494630       -0.7944666844       -0.0005998489
