! pbe def2-sv(p) def2/J RI DEFGRID1 loosescf d4 GCP(DFT/SV(P)) printgap
%output
    printlevel normal
end
* xyz 0 1
C 5.2366862446 -1.3434226984 -2.0652075578
C 3.7435406764 -1.3032341331 -1.8098945477
O 3.5210489212 -0.5542984857 -0.6002493572
P 2.0610896981 -0.0767894329 -0.174743127
S 1.1223097133 0.8864691769 -1.606526837
O 2.3991297824 0.6677456864 1.1719487284
C 2.6068348975 2.0919097048 1.2447157173
C 3.8624481377 2.5133675529 0.5119570925
S 1.1576074295 -1.8548850304 0.5234101086
C -0.2786434805 -1.955364839 -0.6024778408
S -1.8850810738 -1.8585094896 0.2263325223
P -2.0446493482 0.2486321867 0.4940089258
S -0.7115022609 1.1240541766 1.6290602422
O -3.538023388 0.3780667623 1.018381442
C -3.9088084057 -0.016818874 2.3554696409
C -5.2644543702 0.5884426919 2.65732014
O -2.1291944031 0.8826682346 -0.9384754286
C -3.120101455 0.4870208407 -1.9269068255
C -2.527850326 0.7240015853 -3.3001253721
H 5.6201864706 -0.3367710197 -2.2043056271
H 5.7432742051 -1.7987688038 -1.2192829791
H 5.4294501356 -1.9276980541 -2.9588329137
H 3.33642172 -2.309200832 -1.6701285616
H 3.2077850228 -0.8090371739 -2.6276076442
H 1.7217184621 2.5928138508 0.8385110917
H 2.6678764784 2.2880424836 2.3160041598
H 4.7169825817 1.955287309 0.8853974374
H 3.75093697 2.3171010066 -0.5541126943
H 4.0261097549 3.5759636328 0.6613634338
H -0.2560655107 -2.9330410389 -1.0757077275
H -0.1964890587 -1.1484914688 -1.3368841666
H -3.9403490165 -1.1090106508 2.3899417751
H -3.1420885064 0.342559383 3.0497723844
H -5.9963973568 0.235084013 1.9371151722
H -5.5702549384 0.2949839702 3.6560448412
H -5.2094184294 1.6720712137 2.6025105291
H -3.3729905346 -0.5654342246 -1.770145703
H -4.0053417361 1.1018080132 -1.7576214372
H -1.6250031885 0.1334273115 -3.4326717688
H -3.2556103882 0.4457824807 -4.0552089127
H -2.2654700787 1.7716702195 -3.4164325214
*
