! pbe def2-sv(p) def2/J RI DEFGRID1 loosescf d4 GCP(DFT/SV(P)) printgap
%output
    printlevel normal
end
* xyz 0 1
C 4.7267703012 -1.0750588285 -1.2603374434
C 4.2721882986 0.3653973552 -1.3728719435
O 3.2363173051 0.6717785518 -0.4232811357
P 1.7779947347 0.0602176231 -0.5573581727
S 1.1305883312 -0.0322841637 -2.406322777
O 0.9271363231 0.9815132513 0.4141216052
C 1.4698499643 1.8766332862 1.4189040424
C 2.1021211871 1.1346686245 2.5772340521
S 1.8542412985 -1.7917192633 0.4822053597
C 0.1357117636 -1.7934045402 1.0796094781
S -1.1202725208 -1.5851224882 -0.2210744146
P -1.9051925869 0.3929077999 0.1160178816
S -1.5044366788 1.9369082769 -1.0257180039
O -1.661176521 0.6481922431 1.655535343
C -2.4362257574 -0.0404144639 2.6819748581
C -1.703417979 0.0990967015 4.0000425086
O -3.4690686401 0.0607780068 0.099396044
C -4.2443495238 0.1153584288 -1.1056619668
C -3.827118293 -0.9539266009 -2.0950380256
H 3.9128334823 -1.7415664927 -1.5452085692
H 5.5656859333 -1.2403129399 -1.9284858706
H 5.0251691681 -1.3026531637 -0.240398461
H 3.8933431967 0.5733501582 -2.3788184582
H 5.0709853342 1.0650216472 -1.1233174703
H 2.1903394505 2.5351245438 0.931561854
H 0.5950468716 2.4528265013 1.7276230667
H 2.9300167805 0.5227742572 2.2263128353
H 2.4767144623 1.8620886869 3.2907656684
H 1.3737714479 0.49940501 3.0736810668
H 0.0152274522 -1.00373395 1.8158921991
H -0.0217740908 -2.7779447706 1.5130991941
H -3.4166930542 0.4364112555 2.7200433594
H -2.561423159 -1.0859058052 2.3901864463
H -1.5071977232 1.147479414 4.2062049689
H -2.3268438217 -0.3084019336 4.789514318
H -0.7612085458 -0.4420117481 3.9851701922
H -5.2707263476 -0.0268744562 -0.765099684
H -4.1295178466 1.111049168 -1.5468443132
H -2.8020510414 -0.7720923607 -2.4235139195
H -3.8766137406 -1.9388679015 -1.6375253094
H -4.4794508728 -0.9221325894 -2.9615790819
*
