! pbe def2-sv(p) def2/J RI DEFGRID1 loosescf d4 GCP(DFT/SV(P)) printgap
%output
    printlevel normal
end
* xyz 0 1
C 4.3527826976 -0.2713230416 -2.2258909364
C 4.4277921783 0.8158889966 -1.1735304538
O 3.6863683956 0.4849580412 0.0135861487
P 2.1044863304 0.3167941263 0.0347118117
S 1.0979576353 1.6214690224 -1.0272567298
O 1.7961799199 0.4518406115 1.5760317361
C 2.4564241314 -0.3663589441 2.5835847739
C 1.4247242117 -1.185388344 3.3314312565
S 1.8262916962 -1.7364990751 -0.4393081259
C 0.0628778368 -1.6765696881 -0.8262459459
S -0.9427176622 -1.1145901888 0.5846868486
P -2.1610547634 0.3580664648 -0.3464670444
S -2.0939734063 0.4581615331 -2.2998800363
O -1.8503997372 1.7343747188 0.3551383729
C -1.4198274773 1.9388537926 1.7202385731
C -2.3356351375 1.2827042448 2.730407817
O -3.6197942167 0.0524901698 0.2204573902
C -4.5345490081 -0.8477506738 -0.4243495774
C -4.0413883035 -2.2808329438 -0.4186456022
H 3.3416603516 -0.3339282923 -2.626020048
H 5.0338067425 -0.0314182023 -3.0361984573
H 4.6232201448 -1.2336209462 -1.7984927992
H 4.041052421 1.7604835047 -1.568254598
H 5.4467720505 0.9550988329 -0.8094294572
H 3.1948183355 -1.0050355196 2.0941819792
H 2.9630299797 0.3409604947 3.2415515868
H 0.6760564294 -0.5337080455 3.7724132176
H 0.9268129694 -1.8793058597 2.6582681419
H 1.9223634038 -1.7442672761 4.1172663803
H -0.2199880936 -2.6962761299 -1.0758633117
H -0.1194132007 -0.9994611626 -1.6657850965
H -0.3939043012 1.5686164712 1.8116526862
H -1.4190312096 3.0258957465 1.8169772489
H -3.3582481645 1.6195460211 2.5815884025
H -2.3021776519 0.1994649523 2.6232568975
H -2.0085323255 1.5513879792 3.7302180381
H -5.4551957518 -0.7357129815 0.1500545869
H -4.6917657628 -0.5019073361 -1.4509713344
H -3.1710238206 -2.3730086865 -1.0669099416
H -3.7705753123 -2.5862838622 0.5887133526
H -4.8265414594 -2.9290520928 -0.7942304406
*
