! pbe def2-sv(p) def2/J RI DEFGRID1 loosescf d4 GCP(DFT/SV(P)) printgap
%output
    printlevel normal
end
* xyz 0 1
C 4.1369218439 -2.3645220622 -0.9716427106
C 4.3464925729 -0.9601048938 -0.4419708027
O 3.1194679119 -0.375871419 0.0246323182
P 1.973732699 0.1006861764 -0.9874500251
S 2.6545779486 0.8834208613 -2.6471133181
O 1.1218944145 1.036145706 -0.0308477024
C 1.5585042075 2.3830574811 0.2557587122
C 0.7892936429 3.3721137073 -0.5947123173
S 0.6474938263 -1.5078272724 -1.1922308193
C 0.2481991825 -1.8590295656 0.5649157606
S -1.5346888064 -1.9251020955 0.8365961996
P -1.8839604119 0.1648550362 1.0621506843
S -0.8430482456 1.0622786443 2.4510403838
O -3.4633698168 0.2467528786 1.2357567107
C -4.1147856595 0.1270038647 2.512928522
C -3.9813831291 -1.2634412098 3.0989368635
O -1.6905357843 0.7964565667 -0.371322395
C -2.4434739336 0.3657304634 -1.5334482145
C -1.8193953941 1.0133358488 -2.7515519273
H 5.0965436026 -2.7885708731 -1.2491965388
H 3.6730258472 -2.9916544566 -0.2147803126
H 3.495365771 -2.337392138 -1.8521280632
H 4.7620857942 -0.3139408855 -1.2220545118
H 4.99547652 -0.9493546214 0.4347689864
H 1.3499364395 2.5232645392 1.3185641273
H 2.6349573275 2.4573134308 0.0780149906
H 1.0715747256 4.3817081698 -0.3143137793
H 1.0121964637 3.2147811769 -1.6480814725
H -0.2772907249 3.2360551891 -0.4336930618
H 0.6871858965 -1.0866715214 1.1952014475
H 0.6337478394 -2.8459118189 0.8048831939
H -3.6874112127 0.8734664019 3.1896167945
H -5.154843959 0.3751058774 2.2960259461
H -4.2904875338 -2.0114546287 2.3731942844
H -2.9469528354 -1.45328794 3.3801637384
H -4.6053579495 -1.3392354747 3.9836460959
H -2.3965473504 -0.7256781896 -1.5962329798
H -3.4807272486 0.6771426332 -1.3977861408
H -2.35816609 0.6968037285 -3.6385914984
H -1.8634457647 2.095658677 -2.6690272678
H -0.7767170649 0.7152486777 -2.8470679402
*
