! pbe def2-sv(p) def2/J RI DEFGRID1 loosescf d4 GCP(DFT/SV(P)) printgap
%output
    printlevel normal
end
* xyz 0 1
C 4.2809849864 -3.8202991248 -1.0385115624
C 2.762164781 -3.7856961704 -0.9776916353
O 2.2989157815 -2.6062929738 -0.2908338398
C 2.1725347269 -1.4901708067 -0.9790758104
O 2.3733568001 -1.3837282899 -2.1684306807
C 1.7304707339 -0.3417481107 -0.0917632174
C 0.7460378492 0.5449736516 -0.8421853442
H 1.1628814615 0.7822718245 -1.8281811213
C 0.4195106808 1.8463592193 -0.1350858327
O -0.7053908302 2.3040638654 -0.1042790732
O 1.4775845918 2.3996878032 0.3909680077
C 1.3149243474 3.6515898641 1.0916568872
C 1.3254196886 4.8245421 0.1259351678
S -0.8182531481 -0.3147033986 -1.210378543
P -1.8715421631 -0.0048914608 0.6160853763
S -0.8515016962 0.2806582123 2.2625724708
O -3.0469399182 1.0283199966 0.4186455799
C -3.9130209945 1.0183183439 -0.7320521056
O -2.7322904809 -1.362543695 0.6594033458
C -2.1124330216 -2.6248168591 0.9175296422
H 4.600225192 -4.7520905997 -1.4934719968
H 4.650457345 -2.9909462531 -1.637247319
H 4.6973783106 -3.7487724072 -0.0374807423
H 2.3690079776 -4.6142734087 -0.3888667728
H 2.3338409354 -3.7923499185 -1.9840042303
H 2.6110155942 0.2531456331 0.162323601
H 1.3006635085 -0.7333296127 0.8313164997
H 0.3776441302 3.6115401824 1.6539709067
H 2.1639703174 3.684336834 1.773887227
H 1.2750386884 5.7497876473 0.6901285696
H 2.2364567878 4.8141895162 -0.4659989504
H 0.4667012982 4.7711047822 -0.5395066647
H -3.3322202668 1.2267703371 -1.6303863033
H -4.6320303599 1.8124181433 -0.5487772444
H -4.409463646 0.0532700187 -0.8176073882
H -1.4867822438 -2.5590912703 1.8093453373
H -1.5089976641 -2.9251561295 0.0606353971
H -2.9282288164 -3.3251974321 1.076250543
*
