! wb97x-v def2-tzvp def2/J RIJCOSX DEFGRID2 scfconv7 GCP(DFT/TZ) printgap
%output
    printlevel normal
end
%cpcm
    smd true
    smdsolvent "water"
end
* xyz 0 1
C -2.9265804733134595 -0.37490547958867726 0.0014453325201652096
C -2.6841277481996872 1.0164972942069788 0.002410471961833315
C -1.3981092215199207 1.5052402415262576 0.0007033989929508775
C -0.28486309003834176 0.6250781130845147 -0.0030772677557501303
C 1.0457119728309803 1.0974836904243523 -0.004918853069001208
C 2.116927734934019 0.21810268604552233 -0.012483680818983555
C 1.8615902703936484 -1.1819595675810566 -0.0074149705552465795
C 0.5786788836006459 -1.662524695161612 -0.001117545506144895
C -0.5349315305058469 -0.7856558462964757 -0.0018585785213712331
C -1.8685798722120017 -1.2556051906341235 0.00023889689488767918
N 3.4279285892421996 0.6641403961699623 -0.08507806353856111
H -3.9468926400777 -0.7445978666995261 0.0018892270315070438
H -3.5233587497913312 1.705444322502389 0.004012646021625434
H -1.2171933234804249 2.576654614621944 0.0012648485539675316
H 1.2252898866129387 2.169811788887418 -0.0030947044837056257
H 2.7043411543885054 -1.8678881362071227 -0.008672161833561802
H 0.40105315022392807 -2.7344521790876235 0.005540502932769372
H -2.041987072973196 -2.328485173228096 0.00037991618968916124
H 4.1151714716931265 0.02195448800241285 0.28244111489081547
H 3.574518343172461 1.6125501966474052 0.22958775367567524
*
