! pbe def2-sv(p) def2/J RI DEFGRID1 loosescf d4 GCP(DFT/SV(P)) printgap
%output
    printlevel normal
end
* xyz 0 1
C 4.3781398167 0.3009807115 -2.3299830069
C 4.4123582989 0.8860939197 -0.9332561141
O 3.7294336506 0.0490245387 0.0155944698
P 2.1486531804 -0.1235289883 0.0175026746
S 1.1827149248 1.5416605255 -0.3920755709
O 1.9159747328 -0.8115618042 1.4250432428
C 2.3592344699 -0.268999641 2.6878758437
C 1.38972992 0.7660169767 3.2214479956
S 1.770447954 -1.7809576026 -1.2239281481
C -0.0173357583 -1.5920344193 -1.4328089929
S -0.9314768395 -1.7037167734 0.1409276654
P -2.0584125936 0.0810750982 0.0496905508
S -2.143059574 0.9601089108 -1.7076280432
O -1.4542563628 0.8274029378 1.3087424033
C -2.0919257092 1.9366834453 1.9789200533
C -2.1520577142 3.1757512576 1.109271018
O -3.4965590048 -0.303898371 0.6199096349
C -4.5702236494 -0.7428958044 -0.2274907907
C -4.3077928228 -2.1145949085 -0.8145898049
H 4.7330719336 -0.7262891616 -2.3175394645
H 3.3588966882 0.3141359874 -2.7139166073
H 5.0080798749 0.8949723027 -2.984271215
H 3.9465598012 1.8769867414 -0.9185946727
H 5.4300317022 0.946207434 -0.5451325468
H 2.4055036461 -1.1433449375 3.3396252479
H 3.3597323679 0.1505931979 2.5594522043
H 0.3936949835 0.3352884212 3.291222132
H 1.7144651853 1.0920811915 4.2045172675
H 1.349509797 1.6249483511 2.55385798
H -0.3220485196 -2.4160985836 -2.0730256862
H -0.2460966996 -0.6279897808 -1.8977723265
H -3.0907772985 1.6236512329 2.2920878167
H -1.4607528801 2.1010209269 2.8542182536
H -2.8279057948 3.020817653 0.2698927094
H -2.5042076972 4.0158116054 1.6992382393
H -1.1633314852 3.4004562429 0.7131420903
H -5.440029899 -0.7447382063 0.4308534504
H -4.7048370122 -0.0046916375 -1.0246950729
H -3.478494242 -2.0616651471 -1.5186085685
H -4.0567882576 -2.8213368669 -0.02782019
H -5.1940865604 -2.4557050813 -1.3396585119
*
