! pbe def2-sv(p) def2/J RI DEFGRID1 loosescf d4 GCP(DFT/SV(P)) printgap
%output
    printlevel normal
end
* xyz 0 1
C 3.4500350007 2.3011054927 0.2571626415
C 2.2711534701 1.8863441416 -0.5967495451
O 2.2485235676 0.4623582436 -0.8225799235
P 1.9921607893 -0.5814346823 0.335602608
S 0.7549225268 -0.0381250152 1.7633605609
O 3.4673394197 -0.8930239727 0.8324312604
C 3.7215160717 -1.771311376 1.94734223
C 5.1464938618 -1.5390337595 2.4072775884
S 1.5106606672 -2.306226501 -0.7693462184
C -0.274087621 -2.0615002421 -0.9541226919
S -0.6960928317 -0.5665108737 -1.9064501541
P -1.9645999502 0.4290177952 -0.5377087129
S -2.6899634836 -0.7115855704 0.8893953319
O -3.0696123627 1.0869996929 -1.4755821865
C -4.2271740779 0.3554731524 -1.9269926352
C -5.4440970934 0.7367869425 -1.1066233686
O -1.0935621772 1.7065811776 -0.1957777231
C -1.6461940456 2.9399966157 0.3209169459
C -2.2040105653 2.7707749161 1.7185582875
H 3.4861903523 3.3841368694 0.3218707224
H 3.3408502976 1.8879408597 1.2594009998
H 4.3748326374 1.9306723873 -0.1769965691
H 2.3238529245 2.3056781366 -1.6024553813
H 1.3266781518 2.1725745051 -0.1241987636
H 2.9994018325 -1.5463856714 2.7397728881
H 3.5730347495 -2.8009896397 1.6111007904
H 5.3698510471 -2.2144912367 3.2264810177
H 5.8332372374 -1.7266498659 1.5871876125
H 5.2706066318 -0.5137527495 2.7439332727
H -0.7511844075 -1.9918497482 0.0286666959
H -0.6325354944 -2.929923475 -1.5009274423
H -4.3456256242 0.6338327663 -2.9754693764
H -4.0301398325 -0.7171699891 -1.851133579
H -6.3161294028 0.2276854522 -1.5037522411
H -5.3019805817 0.4380825213 -0.0701374086
H -5.604107492 1.8104870001 -1.1475585908
H -0.7951586812 3.6236821119 0.313063765
H -2.4120870041 3.2911155168 -0.3737148227
H -2.4895649564 3.7396996315 2.1153054644
H -3.0764775232 2.1196690843 1.7018384047
H -1.4547147141 2.3198939989 2.3669140558
*
