! pbe def2-sv(p) def2/J RI DEFGRID1 loosescf d4 GCP(DFT/SV(P)) printgap
%output
    printlevel normal
end
* xyz 0 1
C 4.0267098006 0.0029573041 -2.9141221433
C 4.7972914656 -0.5933103878 -1.7526480124
O 3.9482892004 -1.3536379236 -0.876386328
P 2.8829515538 -0.6609609861 0.0634582271
S 3.4396336332 1.0832798758 0.7840844632
O 2.758296555 -1.8797443903 1.0654386074
C 1.6599572097 -2.0924364777 1.9679592111
C 1.6607520384 -1.1060430683 3.1192689756
S 1.0617951217 -0.6533859834 -1.05305005
C 0.3609746217 0.9048904675 -0.4466647273
S -0.728888665 0.6932028864 0.9944274455
P -2.6032237696 0.7286251985 0.0132915624
S -2.6180150421 0.7990649527 -1.9509475741
O -3.2079167106 1.991227309 0.7535574133
C -4.3495206943 2.7125958389 0.2469480298
C -5.6193910464 1.8895072221 0.307188298
O -3.4525804765 -0.4571446787 0.6490201576
C -3.4825628434 -1.7757832094 0.0794975062
C -2.1592263943 -2.4955110235 0.2438346704
H 3.3456657008 0.773168381 -2.5544418575
H 4.7230174473 0.4509515704 -3.6157708681
H 3.4500531038 -0.7678178287 -3.4192130963
H 5.2874558681 0.1942536776 -1.1705425485
H 5.5389355532 -1.3175537841 -2.0921671197
H 0.7222393808 -2.0313907659 1.407025659
H 1.8114448188 -3.1145318824 2.3194667467
H 2.626064013 -1.1126694349 3.6188357017
H 1.4609548475 -0.0984824571 2.7573637127
H 0.8861413028 -1.3800459932 3.8279791254
H -0.2138470359 1.3334410846 -1.267456506
H 1.1800369614 1.5589115972 -0.1409369278
H -4.4061388621 3.59176438 0.8901695541
H -4.1356559016 3.0179440685 -0.7824753093
H -5.7677315553 1.5018817298 1.3116195738
H -6.4642566562 2.5125581871 0.030542842
H -5.5545957769 1.0533746431 -0.3876165114
H -4.2839501822 -2.2789402535 0.6222910207
H -3.7448634983 -1.6913800202 -0.9801995961
H -1.8531283181 -2.4806212217 1.2872150248
H -2.2644646265 -3.524002683 -0.0861914496
H -1.3932212555 -2.0116884326 -0.3628627099
*
