  24
        -28.54643317
 C         -2.0012925073       -0.7320667574        1.2566983873
 C         -1.5150188786        0.0043503030        0.0000040645
 C         -2.0021256648       -0.7325541480       -1.2560695051
 C         -2.1324605157        1.4057141080       -0.0001052066
 C          0.0060808824        0.0323453605       -0.0002694853
 C          0.7409491824        1.2117908385       -0.0002262426
 C          2.1263070674        1.1933230823       -0.0000293621
 C          2.8118493814       -0.0070328401        0.0001043200
 C          2.0951543706       -1.1914434397       -0.0000316821
 C          0.7132266416       -1.1681299244       -0.0002161311
 H         -3.0884782143       -0.7472189096        1.2831659840
 H         -1.6454782098       -1.7581746062        1.2773121601
 H         -1.6400947069       -0.2277017010        2.1505297261
 H         -1.6423532647       -0.2280166888       -2.1503690405
 H         -1.6455954373       -1.7583987260       -1.2770339906
 H         -3.0893316731       -0.7485171116       -1.2813074212
 H         -1.8386105575        1.9623906194       -0.8867776596
 H         -3.2171094856        1.3220086126        0.0001888849
 H         -1.8381789819        1.9627096173        0.8862125415
 H          0.2440159332        2.1680156742       -0.0003224776
 H          2.6706402057        2.1265785663        0.0000736774
 H          3.8915803804       -0.0212241456        0.0003406343
 H          2.6149440143       -2.1385343238       -0.0000059431
 H          0.1820727347       -2.1081209217       -0.0003286682
