! pbe def2-sv(p) def2/J RI DEFGRID1 loosescf d4 GCP(DFT/SV(P)) printgap
%output
    printlevel normal
end
* xyz 0 1
C 3.2265599717 -0.79487444 -2.5390537834
C 3.2272020373 0.6734472354 -2.1725083241
O 2.1797592767 1.0083401019 -1.2310665117
P 2.0422648634 0.4499264445 0.2325624007
S 0.9573137062 1.5979573044 1.3870488643
O 3.5771415326 0.3652880594 0.6649382312
C 4.0138872304 0.319988591 2.0328416752
C 3.6084352293 -0.9611793118 2.7331739516
S 1.4092000097 -1.5874733896 0.1032201697
C 0.0717864541 -1.6087957524 1.3306477776
S -1.5625883804 -2.0045850313 0.6373415527
P -2.0457344873 -0.1960656571 -0.3045637294
S -0.8543715974 0.5282292506 -1.694606629
O -2.3186393621 0.7179494167 0.9537233518
C -2.5842471343 2.1326157235 0.8272346082
C -2.4667630039 2.7485830621 2.204734098
O -3.5170689284 -0.4657203375 -0.8423808092
C -3.7845631494 -1.0862052042 -2.1158191137
C -5.1108888884 -0.5621106185 -2.6291097353
H 3.4851865405 -1.402086884 -1.6727200628
H 2.2419647929 -1.0912309207 -2.8937802196
H 3.9568298711 -0.9661032979 -3.3237095078
H 2.9912117189 1.3018201545 -3.0328133011
H 4.1837900688 0.9720763001 -1.7387032044
H 5.0986886028 0.4104558306 1.9586640115
H 3.6035566361 1.190203577 2.5549006081
H 3.9009550771 -1.8255566665 2.1427307221
H 4.0948846677 -1.0050077471 3.7023392145
H 2.5300032339 -0.9797734681 2.8808598415
H 0.0250958788 -0.6331695073 1.8227600463
H 0.2785848084 -2.4082457019 2.0372192509
H -1.8544093454 2.562790925 0.1325296087
H -3.5884945385 2.251186617 0.4136674679
H -2.7112799251 3.8038667894 2.1443316215
H -3.1485429968 2.2539454968 2.8899524612
H -1.4490450325 2.6369587801 2.5716549595
H -2.9655436098 -0.8432585796 -2.801532345
H -3.8162142364 -2.1668272039 -1.9581633666
H -5.3502955428 -1.057703256 -3.5641317462
H -5.8934021839 -0.7628806204 -1.9031026453
H -5.0514385507 0.5097855388 -2.7972658241
*
