! pbe def2-sv(p) def2/J RI DEFGRID1 loosescf d4 GCP(DFT/SV(P)) printgap
%output
    printlevel normal
end
* xyz 0 1
C 4.8724574076 0.3560932046 -1.3935722734
C 4.4978012204 1.1722022909 -0.1739476906
O 3.4829585073 0.53474428 0.6227383546
P 1.9946198152 0.3227970876 0.1134709221
S 1.2261865986 1.8046855731 -0.9147635435
O 1.2109470261 0.0773962221 1.4593329281
C 1.7269723751 -0.5805204837 2.6445670448
C 2.0439121548 -2.0430588609 2.4139944601
S 2.0575716322 -1.52506916 -0.9441243875
C 0.3584987847 -1.5164228881 -1.5413006002
S -0.863512732 -1.7794938842 -0.2102481989
P -2.0348656657 -0.0448183259 -0.4237058633
S -2.115310586 0.8028719816 -2.1800235026
O -1.4841168959 0.8458756397 0.7874879738
C -1.7124554847 2.264686244 0.8400083241
C -3.1613415386 2.5887847381 1.1391438264
O -3.4743610562 -0.5487156922 0.0187311929
C -3.696477236 -1.2204065066 1.2842528219
C -5.172212563 -1.1181837214 1.6100367801
H 4.044423592 0.3383589927 -2.1002393075
H 5.7335191944 0.808728544 -1.8747815553
H 5.1120485089 -0.6651640821 -1.1089757154
H 4.1333977158 2.1607312821 -0.4697247334
H 5.337499199 1.2757069067 0.5148921892
H 2.6108292578 -0.0340195902 2.9782205714
H 0.916112136 -0.4560710952 3.3640698181
H 2.8925796302 -2.148310216 1.7419352872
H 2.288903384 -2.5019124344 3.3669045412
H 1.1859420134 -2.5535466952 1.981654983
H 0.2764267207 -2.3465141609 -2.2382330664
H 0.1353985717 -0.5659961 -2.0347580191
H -1.0400987459 2.6110878556 1.6268052452
H -1.4030757589 2.7027602869 -0.1149837725
H -3.7940223377 2.2152934966 0.3338888801
H -3.4668656531 2.1312910689 2.0768502047
H -3.2788822175 3.6656791268 1.2085251411
H -3.3829418252 -2.2608379717 1.1668863924
H -3.0787689348 -0.7431726642 2.0497564241
H -5.7575595409 -1.561659947 0.8099408921
H -5.3692417577 -1.6470695345 2.5368751875
H -5.4646460532 -0.0774477826 1.7190066182
*
