! pbe def2-sv(p) def2/J RI DEFGRID1 loosescf d4 GCP(DFT/SV(P)) printgap
%output
    printlevel normal
end
* xyz 0 1
C 3.8250133338 -1.0622947937 -2.4795545694
C 4.2105737084 0.2527484172 -1.8318235248
O 3.7251259053 0.3660883192 -0.4856788273
P 2.1773864324 0.4753065738 -0.1142870292
S 1.1669857755 1.5737555068 -1.3799922606
O 2.2609915008 1.1131316072 1.3191577792
C 2.5349077033 0.4278589916 2.562465262
C 3.8113362568 -0.3825748216 2.5138927899
S 1.5231277823 -1.539991326 0.122751641
C 0.2206773886 -1.6193680075 -1.144367466
S -1.416192592 -2.0316892968 -0.4812284738
P -1.9927653384 -0.1819712021 0.3328134551
S -0.9055326833 0.6878464501 1.7055829372
O -3.4297549537 -0.4998823471 0.9192590099
C -4.4744479187 -1.1131055743 0.1206625443
C -5.8104018715 -0.6922207611 0.6976918239
O -2.1877612439 0.6384094203 -1.0268701513
C -2.266219498 2.0738062418 -1.0457057898
C -3.5957260549 2.5643573769 -0.5117173437
H 2.7513215181 -1.0870354379 -2.6584787608
H 4.3402468333 -1.1557600085 -3.4301303946
H 4.0983321049 -1.8954627977 -1.8373322634
H 3.8215997447 1.095678149 -2.4121948225
H 5.2922346493 0.3457942307 -1.7245496514
H 2.5960330662 1.2438959692 3.2839532731
H 1.6696524548 -0.1974919415 2.8002280897
H 4.0014116555 -0.8009247227 3.4974498722
H 3.7135877195 -1.1961278957 1.7965233941
H 4.6456249064 0.249241861 2.2204360469
H 0.4650920985 -2.4317921084 -1.8238013307
H 0.1723948103 -0.6569638844 -1.6623017541
H -4.3624952751 -0.7898090437 -0.917439042
H -4.3374078047 -2.1952151331 0.1778230273
H -6.6057103444 -1.178550731 0.1421903014
H -5.8696849836 -0.9841863275 1.742175403
H -5.9313162095 0.3854870513 0.6301565915
H -1.4360632737 2.4784505581 -0.4575209568
H -2.1182913354 2.3342173436 -2.0948315576
H -3.6326378058 3.6466838243 -0.5857483914
H -4.4142359324 2.1362130348 -1.0848293386
H -3.699360574 2.2778421218 0.5348171145
*
