! pbe def2-sv(p) def2/J RI DEFGRID1 loosescf d4 GCP(DFT/SV(P)) printgap
%output
    printlevel normal
end
* xyz 0 1
C 2.9238715455 -0.440648702 -2.6529799529
C 1.6712305281 0.1829201619 -2.0766174368
O 1.1958032722 -0.5379007212 -0.9247483078
P 1.9887579413 -0.5215858945 0.4547430352
S 3.03005333 1.0960303742 0.8532362811
O 2.8579478765 -1.8462688714 0.3240315133
C 3.9905218034 -2.1134791395 1.1704194458
C 3.5800168354 -2.3938430703 2.6016735725
S 0.4650447004 -1.1044473503 1.7765281948
C -0.3493047814 0.5073418653 2.0466849054
S -0.4541997975 1.5664957908 0.5791355946
P -1.9333251621 0.5935193108 -0.5824166148
S -1.9596506148 1.1933334046 -2.4481142025
O -3.3207802408 0.7705510837 0.1899198951
C -4.1947516241 1.8793625452 -0.0698334234
C -3.6430751635 3.1749262733 0.4896727215
O -1.6025776487 -0.9183710826 -0.2636556157
C -2.5542797878 -2.0013980298 -0.3565661007
C -2.9744771685 -2.2653245728 -1.7869137937
H 3.7452155642 -0.3402041634 -1.9441874735
H 2.7578262485 -1.4955171321 -2.855345936
H 3.1860716796 0.0701749886 -3.5741238794
H 0.8352924409 0.1481911592 -2.7787567458
H 1.8515652296 1.2237734429 -1.7841036102
H 4.4633434771 -2.9808193887 0.707833432
H 4.6648290425 -1.2520265339 1.1263377521
H 3.1704718171 -1.4919436765 3.0543407367
H 2.8246162969 -3.1749398234 2.6322856591
H 4.4500943912 -2.708888111 3.1687343021
H 0.231319536 1.0830544763 2.7651581292
H -1.3442476214 0.289504901 2.4271064543
H -4.3386371951 1.9608224389 -1.15210121
H -5.1325948629 1.5978455351 0.4109961194
H -2.7186244953 3.4367402725 -0.0248598781
H -4.3668100981 3.9690180213 0.3372634524
H -3.4358842703 3.0751372868 1.5518631867
H -2.0110437995 -2.8477418285 0.0681136145
H -3.4165876062 -1.760439931 0.2684350227
H -2.1022589235 -2.4602303749 -2.4063231397
H -3.6357577389 -3.1256624146 -1.8158041409
H -3.4965815592 -1.3993259386 -2.1919190342
*
