! r2scan-3c def2/J RI DEFGRID2 scfconv6 printgap
%output
    printlevel normal
end
%cpcm
    smd true
    smdsolvent "water"
end
* xyz 0 1
C -2.5920393418 -0.693161297 -7.29849e-05
C -2.5920528272 0.6931257087 -9.828e-06
C -1.4006354594 1.4149321199 8.02159e-05
C -0.220431498 0.7006229371 3.80295e-05
C -0.2204160385 -0.7006242867 -1.66157e-05
C -1.4006077443 -1.4149478006 -8.90677e-05
C 1.1861042614 -1.156239973 9.8212e-05
O 1.6372250043 -2.2800408421 2.60155e-05
N 1.9464462991 1.52525e-05 -3.80035e-05
C 1.1860825106 1.1562547448 -2.60036e-05
O 1.6371814227 2.2800584697 -3.52645e-05
H -3.5305514169 -1.2244001841 0.0002942311
H -3.5305715232 1.2243469024 0.0001465971
H -1.3904874791 2.4931093173 0.000224624
H -1.3904395908 -2.4931230529 0.0001131317
H 2.9578148214 2.62413e-05 -0.0001269847
*
