! pbe def2-sv(p) def2/J RI DEFGRID1 loosescf d4 GCP(DFT/SV(P)) printgap
%output
    printlevel normal
end
* xyz 0 1
C 2.8155994792 0.0173451488 -3.4894707193
C 3.0498259935 -0.4698756718 -2.0758346852
O 2.4690555251 0.5052149175 -1.1719872652
P 2.1615332706 0.1965869606 0.3366441198
S 1.32454227 1.7333047247 1.2097555305
O 3.6249700537 -0.2042236846 0.8377204947
C 3.935317191 -0.9118989358 2.0507890091
C 3.4867983891 -0.1720497234 3.2942673259
S 1.1118601214 -1.6550432415 0.4546006582
C -0.2976827521 -1.1617383613 1.498798392
S -1.9097193716 -1.4061728542 0.7193839404
P -1.9455764244 0.3167369168 -0.5311139014
S -0.6041778344 0.3674653174 -1.9569765681
O -1.830481882 1.5644201322 0.4253080844
C -2.9033865081 2.1678861979 1.1890866314
C -3.4738531211 1.2400749262 2.2407763284
O -3.4517358573 0.3870738535 -1.0304160383
C -3.905282856 -0.3045360877 -2.2081253209
C -3.8416331343 -1.809100744 -2.0474777659
H 3.2305256814 -0.7008519164 -4.1888004019
H 1.7474549421 0.1217298559 -3.6669123284
H 3.2881497821 0.9844311782 -3.6346202499
H 4.1133249704 -0.5494893084 -1.8413905847
H 2.5624933826 -1.4345994071 -1.9050430184
H 3.4724421466 -1.901765904 1.9979018833
H 5.0217870982 -1.0097046275 2.0168007453
H 3.9019089252 0.8327349524 3.3064922295
H 2.401350423 -0.0910371964 3.3156585568
H 3.8218417216 -0.7118508509 4.1739580843
H -0.1694823222 -0.1072576817 1.7646893163
H -0.2953572645 -1.8030300891 2.3761002272
H -2.4195677165 3.0370989989 1.6384035884
H -3.6767551689 2.4897814493 0.4892928188
H -3.9636218874 0.3891262215 1.7727660931
H -2.6862089031 0.8809771896 2.8985839956
H -4.2029370497 1.7886486412 2.8291318777
H -4.9302269952 0.0469169438 -2.3348269654
H -3.2916066389 0.0181025569 -3.0549700031
H -2.8030766571 -2.1311977296 -1.9836310606
H -4.3604905657 -2.1180194285 -1.1436053719
H -4.3028795623 -2.2810864099 -2.9089625688
*
