! pbe def2-sv(p) def2/J RI DEFGRID1 loosescf d4 GCP(DFT/SV(P)) printgap
%output
    printlevel normal
end
* xyz 0 1
C 2.3104656972 2.9846712228 -1.1856124687
C 1.6626623011 1.6432569442 -1.4588538012
O 1.3954511309 0.953275242 -0.2148855044
P 2.3477994688 -0.2286147346 0.2521347773
S 4.2756598296 0.0796985455 0.114588776
O 1.8258686435 -1.4302934986 -0.6641863972
C 2.613323224 -2.6100692611 -0.8867997953
C 2.6700129052 -3.4901014423 0.3460251603
S 1.5632616278 -0.5706148568 2.1735758269
C -0.1680904242 -0.908366167 1.7431520848
S -1.1803116621 0.60835404 1.6791526192
P -2.2286892383 0.1627098323 -0.0928980936
S -1.2427745112 -0.5414089833 -1.6431658817
O -3.092164121 1.4640623208 -0.3836443262
C -2.6015391952 2.5571276378 -1.1771270618
C -1.6322925748 3.4239121603 -0.398702456
O -3.2970916696 -0.8376342085 0.5142221603
C -4.0856321009 -1.72416514 -0.3065838409
C -5.102931191 -0.9702736677 -1.1367318404
H 2.4322499968 3.518661537 -2.1224161515
H 1.6933507508 3.5717004081 -0.5110445337
H 3.2871906893 2.8379979049 -0.7291106292
H 2.303331791 1.0163820503 -2.0854216687
H 0.6896096389 1.747181712 -1.9432602405
H 2.1143249359 -3.106617687 -1.7204699499
H 3.6209469925 -2.3016326789 -1.1842626866
H 1.6676302884 -3.7549199711 0.6729245389
H 3.2218239326 -4.395265206 0.1139194284
H 3.1780957818 -2.9629532913 1.1532749793
H -0.5519959482 -1.5510062679 2.5305224349
H -0.2049051683 -1.3941994013 0.7669236879
H -2.1284032861 2.1488153619 -2.0771969559
H -3.4999364992 3.1111487805 -1.4535903872
H -0.7455540429 2.8508737901 -0.1325468338
H -1.3386096106 4.272905671 -1.008034903
H -2.0992445279 3.7793758041 0.5160696456
H -3.4084332999 -2.2942624939 -0.9509966998
H -4.5632924144 -2.3893666037 0.4138073368
H -5.7486935923 -1.679000438 -1.6457973687
H -5.7024870273 -0.3255169198 -0.4997504139
H -4.5949782156 -0.3573120402 -1.8798230271
*
