! pbe def2-sv(p) def2/J RI DEFGRID1 loosescf d4 GCP(DFT/SV(P)) printgap
%output
    printlevel normal
end
* xyz 0 1
C 3.6679167701 -1.2222531424 2.029575477
C 2.1558247014 -1.1369511659 2.0238293225
O 1.6523503155 -0.0270391195 1.2554172504
P 2.0998682694 0.3230169742 -0.2269777264
S 3.8094471641 1.25700121 -0.4296732233
O 0.8256245231 1.2051380453 -0.5985541812
C 0.9442279765 2.2588972213 -1.5740112741
C 1.0405156738 1.7207002302 -2.9872865555
S 1.8901676132 -1.4764554028 -1.3341448161
C 0.0793745131 -1.656912765 -1.3880880393
S -0.7191305231 -1.8848863225 0.2313416582
P -1.8603997106 -0.1190997004 0.3589512199
S -2.2484550689 0.8568961971 -1.300338466
O -1.1010662009 0.6479733337 1.5170545243
C -1.272486675 2.0536924983 1.7628386406
C -2.6524797373 2.376190714 2.2977871271
O -3.1661684841 -0.5942659077 1.1410377173
C -4.3437001436 -1.0760648302 0.4743313215
C -4.1166402394 -2.4052177924 -0.2173345117
H 4.1017808308 -0.2825334151 2.3640344965
H 3.977759536 -2.020034278 2.6970468025
H 4.037619193 -1.4344882936 1.0263920945
H 1.7605282803 -0.9519886699 3.0243387172
H 1.7189818012 -2.0589029378 1.6263738323
H 0.0397551816 2.8550057842 -1.4419550927
H 1.8267536031 2.8575456727 -1.3281375642
H 1.9163474142 1.079383376 -3.0825805617
H 0.1460386176 1.1568131534 -3.2417753287
H 1.1378766348 2.5536427699 -3.676075982
H -0.0813324724 -2.5631838868 -1.9665807483
H -0.3722434339 -0.7915263469 -1.8767144074
H -0.4892330905 2.2899437463 2.4850099545
H -1.080741173 2.5945379201 0.8307324614
H -2.8696638045 1.7622215929 3.1679157667
H -2.6937613147 3.4251851443 2.5744254372
H -3.4037565807 2.1820351913 1.5332289262
H -5.0802408999 -1.160579365 1.2745550352
H -4.6658258273 -0.3190663959 -0.2483284886
H -5.065907004 -2.7840658204 -0.5824559099
H -3.440891026 -2.277109788 -1.0617008141
H -3.6831399493 -3.122644566 0.4748245809
*
