  17
        -22.49953710
 C          2.4050075642        1.0985583642       -0.0000856063
 C          1.1476116398        0.2859819970        0.0001016786
 C          1.1919651610       -1.1057304838        0.0001368856
 C          0.0000125096       -1.8092693654       -0.0000217610
 C         -1.1919558118       -1.1057419352       -0.0001302202
 C         -1.1476277437        0.2859626886       -0.0000403440
 N         -0.0000084495        0.9543133024        0.0000368801
 C         -2.4050094684        1.0985541276        0.0000479540
 H          2.9978512333        0.8703632325       -0.8835434931
 H          2.1577032302        2.1551449276        0.0041200587
 H          3.0025339182        0.8640697632        0.8785083381
 H          2.1417790750       -1.6176094246        0.0002192114
 H          0.0000131964       -2.8897653111       -0.0000332518
 H         -2.1417539948       -1.6176460993       -0.0002126381
 H         -3.0006678621        0.8666598285       -0.8804946921
 H         -2.9997142671        0.8677905554        0.8815358105
 H         -2.1576729947        2.1551285352       -0.0007141908
