  27
        -30.38129174
 C          3.7630924678       -1.2345785541        0.3025799961
 C          2.3185879487       -0.8418424718        0.0197839306
 C          2.2060477201        0.6084483517       -0.4453361535
 C          0.7576428317        1.0111808625       -0.7022331961
 O          0.0560870931        0.9910524126        0.5283218397
 C         -1.2646041305        1.4904272823        0.4705815899
 C         -2.2607439881        0.5710742987       -0.2428225786
 C         -2.3161113562       -0.8128780707        0.4003961484
 C         -3.2688319192       -1.7445814293       -0.3381660804
 H          4.3700064123       -1.1229682625       -0.5930914944
 H          4.1828097114       -0.6034792139        1.0822675550
 H          3.8187784971       -2.2694274634        0.6303340752
 H          1.9059069637       -1.4987651494       -0.7494109388
 H          1.7175996851       -0.9634223404        0.9225761031
 H          2.6168907259        1.2673139024        0.3211659010
 H          2.7741993341        0.7499895448       -1.3659917649
 H          0.7128727886        2.0246896674       -1.1303956150
 H          0.2999200991        0.3141646874       -1.4176038500
 H         -1.2639364124        2.4807386936       -0.0100732363
 H         -1.5554312874        1.6065223660        1.5178658521
 H         -1.9851971525        0.4746915040       -1.2949998047
 H         -3.2434715842        1.0429130397       -0.1982143879
 H         -2.6347962434       -0.7104121995        1.4398107304
 H         -1.3109664339       -1.2398618720        0.4061679291
 H         -2.9518421217       -1.8761365871       -1.3704006098
 H         -3.2937883937       -2.7201141239        0.1404698262
 H         -4.2762334309       -1.3346155308       -0.3389582019
