! pbe def2-sv(p) def2/J RI DEFGRID1 loosescf d4 GCP(DFT/SV(P)) printgap
%output
    printlevel normal
end
* xyz 0 1
C 2.3603682875 -0.51013524 -3.7256964227
C 1.7453123973 -0.1761814066 -2.3824370784
O 2.6547474081 -0.6234926491 -1.3627864701
P 2.4625374585 -0.2706666948 0.1671139448
S 2.4559213306 1.6301957124 0.6616727256
O 3.7172632924 -1.0983184508 0.6583776177
C 4.3774703768 -0.8251587027 1.9060601835
C 3.4993067249 -1.1532633805 3.0971562037
S 0.7483742674 -1.4058220801 0.733627634
C -0.0561769029 -0.2190152041 1.8682094967
S -1.8572974326 -0.335445288 1.8116260934
P -2.1749351912 0.2711723312 -0.1761759721
S -0.9532505913 1.5931899515 -0.9734596004
O -3.7079353628 0.6887490996 -0.225048494
C -4.1554195351 2.0294620872 0.0396163018
C -3.9142161166 2.4405579145 1.4775255705
O -2.1898481086 -1.149218513 -0.8755026321
C -2.2054624319 -1.3162309854 -2.3079392836
C -3.6182443237 -1.2834417987 -2.8542941365
H 1.6881121578 -0.1910226206 -4.5152878559
H 3.3118692889 0.0023176994 -3.8334404585
H 2.5264099177 -1.5808670096 -3.7982902305
H 0.7889232485 -0.6904407116 -2.2431877585
H 1.5801171929 0.900988767 -2.2691230454
H 5.2661871075 -1.4567000951 1.8726236212
H 4.6699925893 0.2294970242 1.9231745678
H 4.0819961938 -1.0698916685 4.0089767387
H 2.6696127212 -0.4486131953 3.1439136968
H 3.1071601202 -2.1635212555 3.0096687881
H 0.2686179751 0.7890412782 1.5935491154
H 0.2160506037 -0.4579094543 2.8934924088
H -3.6373062467 2.7078729299 -0.6460040727
H -5.2196937165 2.0011471664 -0.1980022699
H -2.8446520832 2.5266429561 1.6662223649
H -4.3803922725 3.4037533435 1.658940553
H -4.3310519688 1.7015325385 2.1570558063
H -1.59227961 -0.5282607203 -2.7603510074
H -1.7370703837 -2.2890107857 -2.4696240071
H -4.2322237055 -2.01537366 -2.3371506056
H -4.0548997414 -0.2974353916 -2.7139009383
H -3.5950735889 -1.5154249905 -3.9145579057
*
