! pbe def2-sv(p) def2/J RI DEFGRID1 loosescf d4 GCP(DFT/SV(P)) printgap
%output
    printlevel normal
end
* xyz 0 1
C 4.6261181091 0.3269431178 -1.8222188423
C 4.4332757976 0.8278292068 -0.4059488884
O 3.3878862405 0.1177835299 0.2810072396
P 1.8597250755 0.2512468991 -0.1359656318
S 1.3359196096 2.0739691322 -0.6060433005
O 1.0964051077 -0.3190056471 1.1250426976
C 1.6087027578 -1.4436294486 1.8902806352
C 2.3171316967 -0.9519169856 3.1339434164
S 1.6596857026 -1.276150683 -1.6136391122
C -0.1231887348 -1.6075779021 -1.5164547395
S -1.1721124206 -0.1327154943 -1.6268560224
P -2.0362544199 -0.1460621855 0.327630746
S -1.8198854823 -1.799642134 1.3468637574
O -3.5284660323 0.3234774902 0.0280246187
C -4.4076089798 -0.2382651387 -0.9647326093
C -4.5850995132 -1.7350634637 -0.819922941
O -1.5168037591 1.0837678582 1.1615589518
C -1.7937592784 2.4691066809 0.8334933881
C -1.1249882907 3.3251309681 1.8870451589
H 3.7484791473 0.5632433902 -2.4229421358
H 5.4922574656 0.8126638201 -2.2598849187
H 4.7730770074 -0.7501456696 -1.827917676
H 4.1857769935 1.8941318951 -0.4042039096
H 5.3165680598 0.6496816145 0.2088165029
H 0.7239223742 -2.0319598446 2.1441392173
H 2.2770221084 -2.0303310665 1.2555403358
H 3.1900142326 -0.3624599123 2.8653351938
H 1.642690755 -0.3366130282 3.7235757096
H 2.6276130385 -1.8088816661 3.7234086386
H -0.3605384117 -2.1267586117 -0.5822941439
H -0.3407762154 -2.2334979955 -2.3787970876
H -5.3472062215 0.2917936444 -0.7988374301
H -4.0102560263 0.0122057778 -1.9521868779
H -4.9086995289 -1.9836229563 0.1880606733
H -5.3296454705 -2.0771367539 -1.5314286931
H -3.6449214235 -2.2485943254 -1.0147267772
H -1.388250267 2.6787917898 -0.1602522186
H -2.876215031 2.6077749116 0.8265376833
H -0.0480054827 3.1833092786 1.8470686983
H -1.3529346824 4.3679755951 1.6925782418
H -1.4827977815 3.0499990958 2.8750960774
*
