! pbe def2-sv(p) def2/J RI DEFGRID1 loosescf d4 GCP(DFT/SV(P)) printgap
%output
    printlevel normal
end
* xyz 0 1
C 5.5497953739 -0.3629555851 -0.3951246955
C 4.3162202589 -1.2295820431 -0.2488544526
O 3.2661416195 -0.7856900733 -1.1465767019
P 2.1069731671 0.1964583256 -0.7326435983
S 1.040613663 0.6850361176 -2.2962699633
O 2.8767565208 1.384230393 -0.0181560898
C 2.2387031483 2.5873130558 0.4523462667
C 1.9654222671 2.5008200459 1.9403478681
S 1.1629126218 -0.8204267518 0.8999360737
C 0.425798298 -2.1811858683 -0.0268015385
S -1.0565797599 -1.7410699418 -1.0066147429
P -1.9682176093 -0.3107668368 0.2599416846
S -1.3008954525 1.5345219683 0.3840814438
O -2.0148614703 -1.1349204317 1.6044702109
C -2.1601124363 -0.4960358048 2.8924536575
C -3.5510034068 0.0719654983 3.0741243689
O -3.4715544008 -0.378858497 -0.2513681642
C -3.9560806284 0.3912865883 -1.3665089807
C -5.4514134694 0.5716288266 -1.1980421908
H 6.3400791989 -0.7628615197 0.2325215024
H 5.8804582688 -0.3581459801 -1.4301604252
H 5.3321372371 0.6578413799 -0.0935070775
H 3.9377532266 -1.2119266265 0.7765856581
H 4.5168862994 -2.2578938141 -0.55509608
H 2.9476656396 3.3849248561 0.2235575401
H 1.3138733775 2.7513210677 -0.1094842486
H 2.8831589466 2.2850271893 2.4794499094
H 1.5570956236 3.4473535623 2.2788019987
H 1.239573492 1.7166128369 2.1443432904
H 0.1427660433 -2.9313461772 0.7079072439
H 1.1454021364 -2.5770157807 -0.7419904918
H -1.9464444178 -1.2941065098 3.6039938979
H -1.4051024987 0.2919812059 2.975090396
H -3.6522953744 0.4657649112 4.080448489
H -3.712819525 0.8781819078 2.359581741
H -4.2972248205 -0.7001209984 2.9074361883
H -3.4341720796 1.3549793343 -1.3835621001
H -3.7189749785 -0.1541012943 -2.2843733217
H -5.6619565516 1.1323142515 -0.2916678343
H -5.8415835702 1.113271351 -2.0534099055
H -5.9341739133 -0.3990931632 -1.1337432277
*
