! pbe def2-sv(p) def2/J RI DEFGRID1 loosescf d4 GCP(DFT/SV(P)) printgap
%output
    printlevel normal
end
* xyz 0 1
C 5.0463719722 -3.2676045255 -0.0833023921
C 4.2888933723 -2.0235498853 0.3355682739
O 3.0828592904 -1.951721347 -0.4532579167
C 2.3337355522 -0.8819454729 -0.3404945973
O 2.602815006 0.0702890404 0.3677923223
C 1.0766519819 -0.9798621477 -1.1694551914
C 0.4224902354 0.3889716345 -1.3388373782
H 0.8065908034 0.9167587893 -2.2130066478
C 0.5867283079 1.2773021472 -0.117820486
O -0.0219639494 1.0685860945 0.9175293467
O 1.2941137972 2.3428622636 -0.3722521682
C 1.5337190926 3.2776215989 0.7002891632
C 1.9121495767 4.6116920225 0.0876911474
S -1.3750825587 0.246188682 -1.5830920755
P -2.0887385966 -0.3185911117 0.3540323326
S -1.1823445817 -1.7000758552 1.413643776
O -2.5835833615 0.9665715088 1.1377291099
C -3.5623221878 1.8678346328 0.5849488315
O -3.5293396105 -0.8502625006 -0.1349556434
C -3.6821754937 -2.0991490125 -0.8132847997
H 5.3049940535 -3.2103292762 -1.1361494891
H 5.9536355023 -3.3491358884 0.50577131
H 4.4316365265 -4.1473536339 0.0804790666
H 4.8680400385 -1.1111844544 0.1622746067
H 4.0035308143 -2.0557074068 1.3916184316
H 0.4146930474 -1.6529194776 -0.6099437247
H 1.2882612156 -1.4423378026 -2.1321157228
H 0.6284050479 3.3412094246 1.3123546317
H 2.3405741792 2.8630881401 1.3120205286
H 1.0977540555 4.9895999795 -0.5233115677
H 2.1231477042 5.3201565786 0.8816364013
H 2.7945587359 4.4948758117 -0.5337066004
H -3.295462406 2.1355391042 -0.4381072963
H -3.5391465199 2.7413479766 1.2317570816
H -4.5437919856 1.3975245374 0.6006231903
H -4.7444100708 -2.3262537547 -0.7742605011
H -3.1079349218 -2.8739777398 -0.3021683123
H -3.3466923343 -2.002963688 -1.8454433913
*
