! pbe def2-sv(p) def2/J RI DEFGRID1 loosescf d4 GCP(DFT/SV(P)) printgap
%output
    printlevel normal
end
* xyz 0 1
C 1.1497385684 2.0227336508 2.3604816671
C 2.6453161854 1.7910457342 2.2829547903
O 3.063874188 1.3803452277 0.9680536645
P 2.7789224646 -0.0681561124 0.3984484359
S 2.8385027221 -1.5404002314 1.6982946389
O 3.9346227777 -0.0432779158 -0.6845947416
C 4.4529928345 -1.2433722797 -1.2837783721
C 3.4288928845 -1.9544388392 -2.1464987055
S 0.9867101708 0.1101553504 -0.7548320479
C -0.0285744133 -1.1724446653 0.0339320906
S -1.37423314 -0.4911516387 1.0256822131
P -2.6050825511 0.0624646727 -0.6270332157
S -2.5966397671 -1.1731539584 -2.1432760192
O -2.1261632682 1.4825702155 -1.1101662587
C -2.0130448036 2.6312022744 -0.2321851066
C -0.933875823 3.5366602736 -0.7896194863
O -3.9915909259 0.4176756872 0.065027743
C -4.7046692257 -0.4261782925 0.9892851515
C -4.9540832355 -1.8159325193 0.4423601332
H 0.6160083143 1.0798482081 2.2426723279
H 0.9025952883 2.4423987843 3.3303672231
H 0.8366982763 2.7114396456 1.5801762411
H 2.9563820959 1.0277210812 3.0035720237
H 3.2033892373 2.712156704 2.4570306708
H 5.2999024556 -0.8929596715 -1.8754083862
H 4.8067539319 -1.9045891481 -0.4861311577
H 3.9104652364 -2.7715965814 -2.6742353368
H 2.6314856028 -2.3614334572 -1.5252148921
H 2.9959293676 -1.2661275344 -2.8685367556
H 0.5986790956 -1.7644128086 0.7048375386
H -0.4630261038 -1.7840981745 -0.7580147968
H -2.9852131576 3.1269907793 -0.2140626712
H -1.7659643099 2.2823385152 0.7753023573
H -0.8338897977 4.4096694651 -0.1523808304
H 0.0145687854 3.0061872917 -0.8359973841
H -1.1974153761 3.8527764656 -1.7947056832
H -4.1306974268 -0.4732628198 1.9188006936
H -5.6399119323 0.1110024247 1.1562394841
H -5.4622501366 -1.7608402367 -0.5175661598
H -4.0098708507 -2.3398230803 0.2998624617
H -5.5664490248 -2.3750869138 1.1423930755
*
