! pbe def2-sv(p) def2/J RI DEFGRID1 loosescf d4 GCP(DFT/SV(P)) printgap
%output
    printlevel normal
end
* xyz 0 1
C 4.0893810749 1.3949738379 -1.4650249537
C 2.7858572175 0.8112737166 -1.9643851917
O 2.4312403663 -0.3904175505 -1.2517708482
P 2.0935490983 -0.4011598385 0.2911158304
S 1.1619298124 1.1728481031 1.0055773204
O 3.5112628654 -0.6947079816 0.945036985
C 3.7028800637 -0.7469587227 2.3743911304
C 4.2634381237 0.565771984 2.8867302651
S 1.1765098864 -2.2939577687 0.4650133798
C -0.4215962797 -1.9907578556 -0.3361807077
S -1.5795846796 -1.0429655244 0.6998644966
P -2.1368076777 0.4211362215 -0.7467320426
S -0.782696305 0.9119007679 -2.07042453
O -2.8144745429 1.5926682631 0.0771642637
C -2.1326384724 2.548725826 0.9123805902
C -2.1723621795 2.1195855105 2.3650813641
O -3.3866264694 -0.1962369093 -1.4810470386
C -4.5801676421 -0.6180620013 -0.7704039835
C -5.1428232947 -1.8378361097 -1.4699104848
H 4.3639326453 2.2427683884 -2.0847397807
H 3.9713611888 1.7311006289 -0.4354253441
H 4.8745344087 0.6442994366 -1.5032143988
H 2.8511340337 0.4850589829 -3.0031387667
H 1.9653753352 1.5292922192 -1.8642064018
H 2.7515506767 -0.9818237668 2.8598507913
H 4.4032789051 -1.5692194311 2.5306487618
H 3.5479088985 1.3685811698 2.7217519397
H 4.4583472879 0.4795205545 3.9507153207
H 5.1882981382 0.8046194892 2.369157176
H -0.8440065121 -2.9755892863 -0.5163356743
H -0.2628112072 -1.4444779707 -1.2694299668
H -1.1023897132 2.6684476118 0.5661027976
H -2.6793891788 3.4807563363 0.7577883038
H -3.1974581726 1.9360575287 2.6736517486
H -1.5874235439 1.2141541688 2.508979812
H -1.7445706163 2.908400214 2.9749143475
H -4.3132286018 -0.8390268044 0.2672122587
H -5.2789323902 0.219426321 -0.7946730999
H -4.433231323 -2.659415532 -1.4254441572
H -6.0644719584 -2.1346505003 -0.9799556011
H -5.3461227969 -1.607581468 -2.5117623366
*
